MODEL 1
REMARK VINA RESULT:      -8.2      0.000      0.000
REMARK  Name = 352769
REMARK  10 active torsions:
REMARK  status: ('A' for Active; 'I' for Inactive)
REMARK    1  A    between atoms: C_6  and  C_10
REMARK    2  A    between atoms: C_12  and  O_16
REMARK    3  A    between atoms: C_14  and  O_19
REMARK    4  A    between atoms: O_16  and  C_21
REMARK    5  A    between atoms: N_18  and  C_23
REMARK    6  A    between atoms: C_21  and  C_25
REMARK    7  A    between atoms: C_23  and  C_27
REMARK    8  A    between atoms: C_27  and  C_32
REMARK    9  A    between atoms: C_32  and  C_33
REMARK   10  A    between atoms: C_32  and  C_34
REMARK                            x       y       z     vdW  Elec       q    Type
REMARK                         _______ _______ _______ _____ _____    ______ ____
ROOT
ATOM      1  S   UNL     1     -11.577  55.263  49.507  0.00  0.00    +0.000 S 
ATOM      2  O   UNL     1     -12.363  54.219  48.883  0.00  0.00    +0.000 OA
ATOM      3  O   UNL     1     -10.828  56.205  48.699  0.00  0.00    +0.000 OA
ATOM      4  N   UNL     1     -10.542  54.557  50.533  0.00  0.00    +0.000 N 
ATOM      5  C   UNL     1     -12.702  56.226  50.448  0.00  0.00    +0.000 A 
ATOM      6  C   UNL     1     -10.696  54.654  51.821  0.00  0.00    +0.000 C 
ATOM      7  C   UNL     1     -12.639  56.135  51.828  0.00  0.00    +0.000 A 
ATOM      8  C   UNL     1     -13.615  57.055  49.790  0.00  0.00    +0.000 A 
ATOM      9  N   UNL     1     -11.731  55.295  52.462  0.00  0.00    +0.000 N 
ATOM     10  C   UNL     1     -13.578  56.844  52.577  0.00  0.00    +0.000 A 
ATOM     11  C   UNL     1     -14.519  57.786  50.551  0.00  0.00    +0.000 A 
ATOM     12  C   UNL     1     -14.512  57.663  51.942  0.00  0.00    +0.000 A 
ATOM     13  H   UNL     1      -9.782  54.046  50.174  0.00  0.00    +0.000 HD
ATOM     14  H   UNL     1     -11.834  55.149  53.430  0.00  0.00    +0.000 HD
ENDROOT
BRANCH   6  15
ATOM     15  C   UNL     1      -9.611  54.029  52.669  0.00  0.00    +0.000 A 
ATOM     16  C   UNL     1      -8.227  54.596  52.628  0.00  0.00    +0.000 A 
ATOM     17  C   UNL     1      -9.885  52.985  53.469  0.00  0.00    +0.000 A 
ATOM     18  O   UNL     1      -8.027  55.618  51.963  0.00  0.00    +0.000 OA
ATOM     19  N   UNL     1      -7.234  53.956  53.338  0.00  0.00    +0.000 N 
ATOM     20  C   UNL     1      -8.811  52.338  54.225  0.00  0.00    +0.000 A 
ATOM     21  C   UNL     1      -7.499  52.808  54.128  0.00  0.00    +0.000 A 
ATOM     22  C   UNL     1      -9.050  51.214  55.022  0.00  0.00    +0.000 A 
ATOM     23  N   UNL     1      -6.462  52.210  54.763  0.00  0.00    +0.000 NA
ATOM     24  C   UNL     1      -7.995  50.587  55.671  0.00  0.00    +0.000 A 
ATOM     25  C   UNL     1      -6.730  51.117  55.510  0.00  0.00    +0.000 A 
BRANCH  17  26
ATOM     26  O   UNL     1     -11.137  52.420  53.633  0.00  0.00    +0.000 OA
ATOM     27  H   UNL     1     -11.492  51.866  52.965  0.00  0.00    +0.000 HD
ENDBRANCH  17  26
BRANCH  19  28
ATOM     28  C   UNL     1      -5.851  54.435  53.245  0.00  0.00    +0.000 C 
BRANCH  28  29
ATOM     29  C   UNL     1      -5.184  53.991  51.937  0.00  0.00    +0.000 C 
BRANCH  29  30
ATOM     30  C   UNL     1      -3.753  53.444  52.106  0.00  0.00    +0.000 C 
ATOM     31  C   UNL     1      -3.304  53.403  53.568  0.00  0.00    +0.000 C 
ATOM     32  C   UNL     1      -3.671  52.035  51.510  0.00  0.00    +0.000 C 
ENDBRANCH  29  30
ENDBRANCH  28  29
ENDBRANCH  19  28
ENDBRANCH   6  15
BRANCH  11  33
ATOM     33  O   UNL     1     -15.491  58.600  50.051  0.00  0.00    +0.000 OA
BRANCH  33  34
ATOM     34  C   UNL     1     -15.364  59.988  50.361  0.00  0.00    +0.000 C 
BRANCH  34  35
ATOM     35  C   UNL     1     -14.281  60.613  49.486  0.00  0.00    +0.000 C 
ATOM     36  O   UNL     1     -13.108  60.705  49.834  0.00  0.00    +0.000 OA
ATOM     37  N   UNL     1     -14.691  61.061  48.262  0.00  0.00    +0.000 N 
ATOM     38  H   UNL     1     -15.636  60.978  47.999  0.00  0.00    +0.000 HD
ATOM     39  H   UNL     1     -14.041  61.465  47.642  0.00  0.00    +0.000 HD
ENDBRANCH  34  35
ENDBRANCH  33  34
ENDBRANCH  11  33
TORSDOF 8
ENDMDL
MODEL 2
REMARK VINA RESULT:      -7.5      1.436      3.572
REMARK  Name = 352769
REMARK  10 active torsions:
REMARK  status: ('A' for Active; 'I' for Inactive)
REMARK    1  A    between atoms: C_6  and  C_10
REMARK    2  A    between atoms: C_12  and  O_16
REMARK    3  A    between atoms: C_14  and  O_19
REMARK    4  A    between atoms: O_16  and  C_21
REMARK    5  A    between atoms: N_18  and  C_23
REMARK    6  A    between atoms: C_21  and  C_25
REMARK    7  A    between atoms: C_23  and  C_27
REMARK    8  A    between atoms: C_27  and  C_32
REMARK    9  A    between atoms: C_32  and  C_33
REMARK   10  A    between atoms: C_32  and  C_34
REMARK                            x       y       z     vdW  Elec       q    Type
REMARK                         _______ _______ _______ _____ _____    ______ ____
ROOT
ATOM      1  S   UNL     1     -11.502  55.105  48.428  0.00  0.00    +0.000 S 
ATOM      2  O   UNL     1     -12.399  54.070  47.957  0.00  0.00    +0.000 OA
ATOM      3  O   UNL     1     -11.033  56.139  47.529  0.00  0.00    +0.000 OA
ATOM      4  N   UNL     1     -10.204  54.380  49.070  0.00  0.00    +0.000 N 
ATOM      5  C   UNL     1     -12.351  55.938  49.718  0.00  0.00    +0.000 A 
ATOM      6  C   UNL     1      -9.998  54.376  50.354  0.00  0.00    +0.000 C 
ATOM      7  C   UNL     1     -11.907  55.751  51.016  0.00  0.00    +0.000 A 
ATOM      8  C   UNL     1     -13.433  56.765  49.406  0.00  0.00    +0.000 A 
ATOM      9  N   UNL     1     -10.834  54.914  51.305  0.00  0.00    +0.000 N 
ATOM     10  C   UNL     1     -12.622  56.355  52.049  0.00  0.00    +0.000 A 
ATOM     11  C   UNL     1     -14.114  57.391  50.444  0.00  0.00    +0.000 A 
ATOM     12  C   UNL     1     -13.719  57.169  51.764  0.00  0.00    +0.000 A 
ATOM     13  H   UNL     1      -9.557  53.936  48.476  0.00  0.00    +0.000 HD
ATOM     14  H   UNL     1     -10.662  54.694  52.248  0.00  0.00    +0.000 HD
ENDROOT
BRANCH   6  15
ATOM     15  C   UNL     1      -8.704  53.748  50.819  0.00  0.00    +0.000 A 
ATOM     16  C   UNL     1      -8.748  52.524  51.680  0.00  0.00    +0.000 A 
ATOM     17  C   UNL     1      -7.520  54.267  50.451  0.00  0.00    +0.000 A 
ATOM     18  O   UNL     1      -9.845  52.009  51.917  0.00  0.00    +0.000 OA
ATOM     19  N   UNL     1      -7.560  52.022  52.167  0.00  0.00    +0.000 N 
ATOM     20  C   UNL     1      -6.276  53.698  50.971  0.00  0.00    +0.000 A 
ATOM     21  C   UNL     1      -6.310  52.607  51.844  0.00  0.00    +0.000 A 
ATOM     22  C   UNL     1      -5.029  54.250  50.655  0.00  0.00    +0.000 A 
ATOM     23  N   UNL     1      -5.190  52.081  52.395  0.00  0.00    +0.000 NA
ATOM     24  C   UNL     1      -3.876  53.724  51.222  0.00  0.00    +0.000 A 
ATOM     25  C   UNL     1      -4.007  52.650  52.080  0.00  0.00    +0.000 A 
BRANCH  17  26
ATOM     26  O   UNL     1      -7.359  55.354  49.611  0.00  0.00    +0.000 OA
ATOM     27  H   UNL     1      -6.979  56.146  49.938  0.00  0.00    +0.000 HD
ENDBRANCH  17  26
BRANCH  19  28
ATOM     28  C   UNL     1      -7.579  50.878  53.086  0.00  0.00    +0.000 C 
BRANCH  28  29
ATOM     29  C   UNL     1      -7.778  51.323  54.540  0.00  0.00    +0.000 C 
BRANCH  29  30
ATOM     30  C   UNL     1      -8.805  50.485  55.327  0.00  0.00    +0.000 C 
ATOM     31  C   UNL     1      -8.232  49.914  56.625  0.00  0.00    +0.000 C 
ATOM     32  C   UNL     1     -10.029  51.349  55.649  0.00  0.00    +0.000 C 
ENDBRANCH  29  30
ENDBRANCH  28  29
ENDBRANCH  19  28
ENDBRANCH   6  15
BRANCH  11  33
ATOM     33  O   UNL     1     -15.209  58.189  50.297  0.00  0.00    +0.000 OA
BRANCH  33  34
ATOM     34  C   UNL     1     -15.047  59.552  50.692  0.00  0.00    +0.000 C 
BRANCH  34  35
ATOM     35  C   UNL     1     -14.123  60.265  49.709  0.00  0.00    +0.000 C 
ATOM     36  O   UNL     1     -12.926  60.435  49.917  0.00  0.00    +0.000 OA
ATOM     37  N   UNL     1     -14.707  60.700  48.553  0.00  0.00    +0.000 N 
ATOM     38  H   UNL     1     -15.668  60.554  48.402  0.00  0.00    +0.000 HD
ATOM     39  H   UNL     1     -14.165  61.158  47.870  0.00  0.00    +0.000 HD
ENDBRANCH  34  35
ENDBRANCH  33  34
ENDBRANCH  11  33
TORSDOF 8
ENDMDL
MODEL 3
REMARK VINA RESULT:      -7.2      3.580      5.347
REMARK  Name = 352769
REMARK  10 active torsions:
REMARK  status: ('A' for Active; 'I' for Inactive)
REMARK    1  A    between atoms: C_6  and  C_10
REMARK    2  A    between atoms: C_12  and  O_16
REMARK    3  A    between atoms: C_14  and  O_19
REMARK    4  A    between atoms: O_16  and  C_21
REMARK    5  A    between atoms: N_18  and  C_23
REMARK    6  A    between atoms: C_21  and  C_25
REMARK    7  A    between atoms: C_23  and  C_27
REMARK    8  A    between atoms: C_27  and  C_32
REMARK    9  A    between atoms: C_32  and  C_33
REMARK   10  A    between atoms: C_32  and  C_34
REMARK                            x       y       z     vdW  Elec       q    Type
REMARK                         _______ _______ _______ _____ _____    ______ ____
ROOT
ATOM      1  S   UNL     1     -13.391  58.991  49.312  0.00  0.00    +0.000 S 
ATOM      2  O   UNL     1     -14.486  58.953  48.365  0.00  0.00    +0.000 OA
ATOM      3  O   UNL     1     -12.634  60.210  49.515  0.00  0.00    +0.000 OA
ATOM      4  N   UNL     1     -12.347  57.821  48.908  0.00  0.00    +0.000 N 
ATOM      5  C   UNL     1     -14.080  58.587  50.874  0.00  0.00    +0.000 A 
ATOM      6  C   UNL     1     -12.220  56.749  49.633  0.00  0.00    +0.000 C 
ATOM      7  C   UNL     1     -13.767  57.355  51.423  0.00  0.00    +0.000 A 
ATOM      8  C   UNL     1     -14.908  59.509  51.519  0.00  0.00    +0.000 A 
ATOM      9  N   UNL     1     -12.950  56.448  50.760  0.00  0.00    +0.000 N 
ATOM     10  C   UNL     1     -14.369  57.003  52.631  0.00  0.00    +0.000 A 
ATOM     11  C   UNL     1     -15.471  59.159  52.741  0.00  0.00    +0.000 A 
ATOM     12  C   UNL     1     -15.216  57.899  53.284  0.00  0.00    +0.000 A 
ATOM     13  H   UNL     1     -11.797  57.925  48.098  0.00  0.00    +0.000 HD
ATOM     14  H   UNL     1     -12.889  55.533  51.117  0.00  0.00    +0.000 HD
ENDROOT
BRANCH   6  15
ATOM     15  C   UNL     1     -11.146  55.776  49.200  0.00  0.00    +0.000 A 
ATOM     16  C   UNL     1     -10.256  55.156  50.232  0.00  0.00    +0.000 A 
ATOM     17  C   UNL     1     -10.998  55.452  47.904  0.00  0.00    +0.000 A 
ATOM     18  O   UNL     1     -10.481  55.391  51.423  0.00  0.00    +0.000 OA
ATOM     19  N   UNL     1      -9.227  54.343  49.807  0.00  0.00    +0.000 N 
ATOM     20  C   UNL     1      -9.905  54.572  47.488  0.00  0.00    +0.000 A 
ATOM     21  C   UNL     1      -9.017  54.055  48.435  0.00  0.00    +0.000 A 
ATOM     22  C   UNL     1      -9.687  54.261  46.141  0.00  0.00    +0.000 A 
ATOM     23  N   UNL     1      -7.958  53.282  48.094  0.00  0.00    +0.000 NA
ATOM     24  C   UNL     1      -8.600  53.477  45.779  0.00  0.00    +0.000 A 
ATOM     25  C   UNL     1      -7.771  53.017  46.783  0.00  0.00    +0.000 A 
BRANCH  17  26
ATOM     26  O   UNL     1     -11.799  55.916  46.876  0.00  0.00    +0.000 OA
ATOM     27  H   UNL     1     -12.397  55.334  46.450  0.00  0.00    +0.000 HD
ENDBRANCH  17  26
BRANCH  19  28
ATOM     28  C   UNL     1      -8.285  53.795  50.788  0.00  0.00    +0.000 C 
BRANCH  28  29
ATOM     29  C   UNL     1      -7.261  54.843  51.240  0.00  0.00    +0.000 C 
BRANCH  29  30
ATOM     30  C   UNL     1      -6.885  54.764  52.732  0.00  0.00    +0.000 C 
ATOM     31  C   UNL     1      -7.088  56.091  53.465  0.00  0.00    +0.000 C 
ATOM     32  C   UNL     1      -7.721  53.675  53.413  0.00  0.00    +0.000 C 
ENDBRANCH  29  30
ENDBRANCH  28  29
ENDBRANCH  19  28
ENDBRANCH   6  15
BRANCH  11  33
ATOM     33  O   UNL     1     -16.328  59.935  53.463  0.00  0.00    +0.000 OA
BRANCH  33  34
ATOM     34  C   UNL     1     -16.138  59.925  54.878  0.00  0.00    +0.000 C 
BRANCH  34  35
ATOM     35  C   UNL     1     -17.130  60.881  55.536  0.00  0.00    +0.000 C 
ATOM     36  O   UNL     1     -17.590  61.865  54.967  0.00  0.00    +0.000 OA
ATOM     37  N   UNL     1     -17.500  60.567  56.813  0.00  0.00    +0.000 N 
ATOM     38  H   UNL     1     -17.122  59.773  57.254  0.00  0.00    +0.000 HD
ATOM     39  H   UNL     1     -18.146  61.135  57.292  0.00  0.00    +0.000 HD
ENDBRANCH  34  35
ENDBRANCH  33  34
ENDBRANCH  11  33
TORSDOF 8
ENDMDL
MODEL 4
REMARK VINA RESULT:      -7.1      4.003      5.751
REMARK  Name = 352769
REMARK  10 active torsions:
REMARK  status: ('A' for Active; 'I' for Inactive)
REMARK    1  A    between atoms: C_6  and  C_10
REMARK    2  A    between atoms: C_12  and  O_16
REMARK    3  A    between atoms: C_14  and  O_19
REMARK    4  A    between atoms: O_16  and  C_21
REMARK    5  A    between atoms: N_18  and  C_23
REMARK    6  A    between atoms: C_21  and  C_25
REMARK    7  A    between atoms: C_23  and  C_27
REMARK    8  A    between atoms: C_27  and  C_32
REMARK    9  A    between atoms: C_32  and  C_33
REMARK   10  A    between atoms: C_32  and  C_34
REMARK                            x       y       z     vdW  Elec       q    Type
REMARK                         _______ _______ _______ _____ _____    ______ ____
ROOT
ATOM      1  S   UNL     1     -13.178  58.564  49.377  0.00  0.00    +0.000 S 
ATOM      2  O   UNL     1     -14.254  58.493  48.410  0.00  0.00    +0.000 OA
ATOM      3  O   UNL     1     -12.366  59.759  49.490  0.00  0.00    +0.000 OA
ATOM      4  N   UNL     1     -12.185  57.314  49.105  0.00  0.00    +0.000 N 
ATOM      5  C   UNL     1     -13.918  58.337  50.951  0.00  0.00    +0.000 A 
ATOM      6  C   UNL     1     -12.127  56.307  49.926  0.00  0.00    +0.000 C 
ATOM      7  C   UNL     1     -13.679  57.146  51.616  0.00  0.00    +0.000 A 
ATOM      8  C   UNL     1     -14.713  59.352  51.490  0.00  0.00    +0.000 A 
ATOM      9  N   UNL     1     -12.895  56.144  51.056  0.00  0.00    +0.000 N 
ATOM     10  C   UNL     1     -14.323  56.933  52.835  0.00  0.00    +0.000 A 
ATOM     11  C   UNL     1     -15.317  59.141  52.723  0.00  0.00    +0.000 A 
ATOM     12  C   UNL     1     -15.137  57.924  53.384  0.00  0.00    +0.000 A 
ATOM     13  H   UNL     1     -11.614  57.317  48.304  0.00  0.00    +0.000 HD
ATOM     14  H   UNL     1     -12.887  55.264  51.496  0.00  0.00    +0.000 HD
ENDROOT
BRANCH   6  15
ATOM     15  C   UNL     1     -11.094  55.249  49.609  0.00  0.00    +0.000 A 
ATOM     16  C   UNL     1     -11.188  54.493  48.320  0.00  0.00    +0.000 A 
ATOM     17  C   UNL     1     -10.089  54.996  50.463  0.00  0.00    +0.000 A 
ATOM     18  O   UNL     1     -12.061  54.817  47.508  0.00  0.00    +0.000 OA
ATOM     19  N   UNL     1     -10.291  53.472  48.092  0.00  0.00    +0.000 N 
ATOM     20  C   UNL     1      -9.142  53.916  50.183  0.00  0.00    +0.000 A 
ATOM     21  C   UNL     1      -9.271  53.148  49.022  0.00  0.00    +0.000 A 
ATOM     22  C   UNL     1      -8.118  53.588  51.079  0.00  0.00    +0.000 A 
ATOM     23  N   UNL     1      -8.454  52.103  48.746  0.00  0.00    +0.000 NA
ATOM     24  C   UNL     1      -7.281  52.513  50.810  0.00  0.00    +0.000 A 
ATOM     25  C   UNL     1      -7.488  51.807  49.642  0.00  0.00    +0.000 A 
BRANCH  17  26
ATOM     26  O   UNL     1      -9.869  55.672  51.650  0.00  0.00    +0.000 OA
ATOM     27  H   UNL     1      -9.160  56.281  51.718  0.00  0.00    +0.000 HD
ENDBRANCH  17  26
BRANCH  19  28
ATOM     28  C   UNL     1     -10.415  52.655  46.880  0.00  0.00    +0.000 C 
BRANCH  28  29
ATOM     29  C   UNL     1      -9.909  53.402  45.639  0.00  0.00    +0.000 C 
BRANCH  29  30
ATOM     30  C   UNL     1     -10.770  53.196  44.378  0.00  0.00    +0.000 C 
ATOM     31  C   UNL     1     -10.033  52.433  43.277  0.00  0.00    +0.000 C 
ATOM     32  C   UNL     1     -12.050  52.440  44.750  0.00  0.00    +0.000 C 
ENDBRANCH  29  30
ENDBRANCH  28  29
ENDBRANCH  19  28
ENDBRANCH   6  15
BRANCH  11  33
ATOM     33  O   UNL     1     -16.150  60.018  53.352  0.00  0.00    +0.000 OA
BRANCH  33  34
ATOM     34  C   UNL     1     -16.122  59.994  54.780  0.00  0.00    +0.000 C 
BRANCH  34  35
ATOM     35  C   UNL     1     -17.153  60.975  55.330  0.00  0.00    +0.000 C 
ATOM     36  O   UNL     1     -17.618  61.899  54.671  0.00  0.00    +0.000 OA
ATOM     37  N   UNL     1     -17.551  60.759  56.619  0.00  0.00    +0.000 N 
ATOM     38  H   UNL     1     -17.168  60.012  57.133  0.00  0.00    +0.000 HD
ATOM     39  H   UNL     1     -18.222  61.349  57.033  0.00  0.00    +0.000 HD
ENDBRANCH  34  35
ENDBRANCH  33  34
ENDBRANCH  11  33
TORSDOF 8
ENDMDL
MODEL 5
REMARK VINA RESULT:      -7.0      2.683      3.911
REMARK  Name = 352769
REMARK  10 active torsions:
REMARK  status: ('A' for Active; 'I' for Inactive)
REMARK    1  A    between atoms: C_6  and  C_10
REMARK    2  A    between atoms: C_12  and  O_16
REMARK    3  A    between atoms: C_14  and  O_19
REMARK    4  A    between atoms: O_16  and  C_21
REMARK    5  A    between atoms: N_18  and  C_23
REMARK    6  A    between atoms: C_21  and  C_25
REMARK    7  A    between atoms: C_23  and  C_27
REMARK    8  A    between atoms: C_27  and  C_32
REMARK    9  A    between atoms: C_32  and  C_33
REMARK   10  A    between atoms: C_32  and  C_34
REMARK                            x       y       z     vdW  Elec       q    Type
REMARK                         _______ _______ _______ _____ _____    ______ ____
ROOT
ATOM      1  S   UNL     1     -11.175  54.581  47.654  0.00  0.00    +0.000 S 
ATOM      2  O   UNL     1     -12.021  53.533  47.121  0.00  0.00    +0.000 OA
ATOM      3  O   UNL     1     -10.926  55.787  46.891  0.00  0.00    +0.000 OA
ATOM      4  N   UNL     1      -9.742  53.921  48.020  0.00  0.00    +0.000 N 
ATOM      5  C   UNL     1     -11.928  55.105  49.149  0.00  0.00    +0.000 A 
ATOM      6  C   UNL     1      -9.375  53.745  49.255  0.00  0.00    +0.000 C 
ATOM      7  C   UNL     1     -11.306  54.774  50.341  0.00  0.00    +0.000 A 
ATOM      8  C   UNL     1     -13.116  55.840  49.100  0.00  0.00    +0.000 A 
ATOM      9  N   UNL     1     -10.131  54.032  50.368  0.00  0.00    +0.000 N 
ATOM     10  C   UNL     1     -11.939  55.128  51.533  0.00  0.00    +0.000 A 
ATOM     11  C   UNL     1     -13.715  56.218  50.295  0.00  0.00    +0.000 A 
ATOM     12  C   UNL     1     -13.136  55.844  51.509  0.00  0.00    +0.000 A 
ATOM     13  H   UNL     1      -9.137  53.649  47.293  0.00  0.00    +0.000 HD
ATOM     14  H   UNL     1      -9.819  53.692  51.237  0.00  0.00    +0.000 HD
ENDROOT
BRANCH   6  15
ATOM     15  C   UNL     1      -7.978  53.206  49.464  0.00  0.00    +0.000 A 
ATOM     16  C   UNL     1      -7.030  53.945  50.356  0.00  0.00    +0.000 A 
ATOM     17  C   UNL     1      -7.589  52.064  48.871  0.00  0.00    +0.000 A 
ATOM     18  O   UNL     1      -7.446  54.934  50.968  0.00  0.00    +0.000 OA
ATOM     19  N   UNL     1      -5.734  53.486  50.460  0.00  0.00    +0.000 N 
ATOM     20  C   UNL     1      -6.210  51.594  49.016  0.00  0.00    +0.000 A 
ATOM     21  C   UNL     1      -5.294  52.323  49.779  0.00  0.00    +0.000 A 
ATOM     22  C   UNL     1      -5.756  50.441  48.366  0.00  0.00    +0.000 A 
ATOM     23  N   UNL     1      -3.994  51.960  49.898  0.00  0.00    +0.000 NA
ATOM     24  C   UNL     1      -4.424  50.065  48.473  0.00  0.00    +0.000 A 
ATOM     25  C   UNL     1      -3.589  50.850  49.243  0.00  0.00    +0.000 A 
BRANCH  17  26
ATOM     26  O   UNL     1      -8.397  51.269  48.078  0.00  0.00    +0.000 OA
ATOM     27  H   UNL     1      -8.809  51.631  47.318  0.00  0.00    +0.000 HD
ENDBRANCH  17  26
BRANCH  19  28
ATOM     28  C   UNL     1      -4.760  54.241  51.255  0.00  0.00    +0.000 C 
BRANCH  28  29
ATOM     29  C   UNL     1      -4.742  53.780  52.717  0.00  0.00    +0.000 C 
BRANCH  29  30
ATOM     30  C   UNL     1      -5.127  54.872  53.734  0.00  0.00    +0.000 C 
ATOM     31  C   UNL     1      -6.062  54.357  54.829  0.00  0.00    +0.000 C 
ATOM     32  C   UNL     1      -3.858  55.443  54.377  0.00  0.00    +0.000 C 
ENDBRANCH  29  30
ENDBRANCH  28  29
ENDBRANCH  19  28
ENDBRANCH   6  15
BRANCH  11  33
ATOM     33  O   UNL     1     -14.892  56.898  50.405  0.00  0.00    +0.000 OA
BRANCH  33  34
ATOM     34  C   UNL     1     -15.270  57.283  51.727  0.00  0.00    +0.000 C 
BRANCH  34  35
ATOM     35  C   UNL     1     -15.036  58.780  51.911  0.00  0.00    +0.000 C 
ATOM     36  O   UNL     1     -14.894  59.557  50.973  0.00  0.00    +0.000 OA
ATOM     37  N   UNL     1     -15.008  59.223  53.204  0.00  0.00    +0.000 N 
ATOM     38  H   UNL     1     -15.125  58.585  53.944  0.00  0.00    +0.000 HD
ATOM     39  H   UNL     1     -14.872  60.179  53.394  0.00  0.00    +0.000 HD
ENDBRANCH  34  35
ENDBRANCH  33  34
ENDBRANCH  11  33
TORSDOF 8
ENDMDL
MODEL 6
REMARK VINA RESULT:      -7.0      2.412      3.340
REMARK  Name = 352769
REMARK  10 active torsions:
REMARK  status: ('A' for Active; 'I' for Inactive)
REMARK    1  A    between atoms: C_6  and  C_10
REMARK    2  A    between atoms: C_12  and  O_16
REMARK    3  A    between atoms: C_14  and  O_19
REMARK    4  A    between atoms: O_16  and  C_21
REMARK    5  A    between atoms: N_18  and  C_23
REMARK    6  A    between atoms: C_21  and  C_25
REMARK    7  A    between atoms: C_23  and  C_27
REMARK    8  A    between atoms: C_27  and  C_32
REMARK    9  A    between atoms: C_32  and  C_33
REMARK   10  A    between atoms: C_32  and  C_34
REMARK                            x       y       z     vdW  Elec       q    Type
REMARK                         _______ _______ _______ _____ _____    ______ ____
ROOT
ATOM      1  S   UNL     1     -10.464  54.688  48.536  0.00  0.00    +0.000 S 
ATOM      2  O   UNL     1     -11.159  53.514  48.047  0.00  0.00    +0.000 OA
ATOM      3  O   UNL     1     -10.142  55.780  47.640  0.00  0.00    +0.000 OA
ATOM      4  N   UNL     1      -9.087  54.193  49.230  0.00  0.00    +0.000 N 
ATOM      5  C   UNL     1     -11.485  55.376  49.785  0.00  0.00    +0.000 A 
ATOM      6  C   UNL     1      -8.930  54.231  50.521  0.00  0.00    +0.000 C 
ATOM      7  C   UNL     1     -11.063  55.273  51.100  0.00  0.00    +0.000 A 
ATOM      8  C   UNL     1     -12.679  56.009  49.426  0.00  0.00    +0.000 A 
ATOM      9  N   UNL     1      -9.878  54.629  51.436  0.00  0.00    +0.000 N 
ATOM     10  C   UNL     1     -11.906  55.756  52.100  0.00  0.00    +0.000 A 
ATOM     11  C   UNL     1     -13.490  56.519  50.432  0.00  0.00    +0.000 A 
ATOM     12  C   UNL     1     -13.112  56.375  51.768  0.00  0.00    +0.000 A 
ATOM     13  H   UNL     1      -8.355  53.859  48.664  0.00  0.00    +0.000 HD
ATOM     14  H   UNL     1      -9.705  54.446  52.387  0.00  0.00    +0.000 HD
ENDROOT
BRANCH   6  15
ATOM     15  C   UNL     1      -7.567  53.830  51.037  0.00  0.00    +0.000 A 
ATOM     16  C   UNL     1      -6.934  52.568  50.540  0.00  0.00    +0.000 A 
ATOM     17  C   UNL     1      -6.915  54.604  51.922  0.00  0.00    +0.000 A 
ATOM     18  O   UNL     1      -7.508  51.931  49.651  0.00  0.00    +0.000 OA
ATOM     19  N   UNL     1      -5.733  52.176  51.091  0.00  0.00    +0.000 N 
ATOM     20  C   UNL     1      -5.633  54.166  52.475  0.00  0.00    +0.000 A 
ATOM     21  C   UNL     1      -5.073  52.948  52.079  0.00  0.00    +0.000 A 
ATOM     22  C   UNL     1      -4.956  54.919  53.440  0.00  0.00    +0.000 A 
ATOM     23  N   UNL     1      -3.918  52.474  52.603  0.00  0.00    +0.000 NA
ATOM     24  C   UNL     1      -3.775  54.439  53.991  0.00  0.00    +0.000 A 
ATOM     25  C   UNL     1      -3.301  53.221  53.545  0.00  0.00    +0.000 A 
BRANCH  17  26
ATOM     26  O   UNL     1      -7.375  55.817  52.403  0.00  0.00    +0.000 OA
ATOM     27  H   UNL     1      -7.150  56.612  51.961  0.00  0.00    +0.000 HD
ENDBRANCH  17  26
BRANCH  19  28
ATOM     28  C   UNL     1      -5.134  50.898  50.688  0.00  0.00    +0.000 C 
BRANCH  28  29
ATOM     29  C   UNL     1      -4.048  51.092  49.623  0.00  0.00    +0.000 C 
BRANCH  29  30
ATOM     30  C   UNL     1      -4.584  51.241  48.186  0.00  0.00    +0.000 C 
ATOM     31  C   UNL     1      -4.468  52.671  47.657  0.00  0.00    +0.000 C 
ATOM     32  C   UNL     1      -3.823  50.291  47.255  0.00  0.00    +0.000 C 
ENDBRANCH  29  30
ENDBRANCH  28  29
ENDBRANCH  19  28
ENDBRANCH   6  15
BRANCH  11  33
ATOM     33  O   UNL     1     -14.697  57.123  50.239  0.00  0.00    +0.000 OA
BRANCH  33  34
ATOM     34  C   UNL     1     -14.794  58.481  50.669  0.00  0.00    +0.000 C 
BRANCH  34  35
ATOM     35  C   UNL     1     -14.044  59.383  49.693  0.00  0.00    +0.000 C 
ATOM     36  O   UNL     1     -13.381  60.352  50.049  0.00  0.00    +0.000 OA
ATOM     37  N   UNL     1     -14.138  59.040  48.374  0.00  0.00    +0.000 N 
ATOM     38  H   UNL     1     -14.673  58.258  48.106  0.00  0.00    +0.000 HD
ATOM     39  H   UNL     1     -13.669  59.573  47.691  0.00  0.00    +0.000 HD
ENDBRANCH  34  35
ENDBRANCH  33  34
ENDBRANCH  11  33
TORSDOF 8
ENDMDL
MODEL 7
REMARK VINA RESULT:      -6.9      3.666      9.284
REMARK  Name = 352769
REMARK  10 active torsions:
REMARK  status: ('A' for Active; 'I' for Inactive)
REMARK    1  A    between atoms: C_6  and  C_10
REMARK    2  A    between atoms: C_12  and  O_16
REMARK    3  A    between atoms: C_14  and  O_19
REMARK    4  A    between atoms: O_16  and  C_21
REMARK    5  A    between atoms: N_18  and  C_23
REMARK    6  A    between atoms: C_21  and  C_25
REMARK    7  A    between atoms: C_23  and  C_27
REMARK    8  A    between atoms: C_27  and  C_32
REMARK    9  A    between atoms: C_32  and  C_33
REMARK   10  A    between atoms: C_32  and  C_34
REMARK                            x       y       z     vdW  Elec       q    Type
REMARK                         _______ _______ _______ _____ _____    ______ ____
ROOT
ATOM      1  S   UNL     1      -9.385  52.431  52.672  0.00  0.00    +0.000 S 
ATOM      2  O   UNL     1      -9.306  51.026  52.332  0.00  0.00    +0.000 OA
ATOM      3  O   UNL     1      -9.866  52.849  53.974  0.00  0.00    +0.000 OA
ATOM      4  N   UNL     1     -10.297  53.161  51.550  0.00  0.00    +0.000 N 
ATOM      5  C   UNL     1      -7.753  53.061  52.538  0.00  0.00    +0.000 A 
ATOM      6  C   UNL     1      -9.773  53.962  50.670  0.00  0.00    +0.000 C 
ATOM      7  C   UNL     1      -7.470  53.912  51.484  0.00  0.00    +0.000 A 
ATOM      8  C   UNL     1      -6.797  52.698  53.490  0.00  0.00    +0.000 A 
ATOM      9  N   UNL     1      -8.433  54.251  50.541  0.00  0.00    +0.000 N 
ATOM     10  C   UNL     1      -6.156  54.357  51.334  0.00  0.00    +0.000 A 
ATOM     11  C   UNL     1      -5.501  53.181  53.349  0.00  0.00    +0.000 A 
ATOM     12  C   UNL     1      -5.179  53.993  52.261  0.00  0.00    +0.000 A 
ATOM     13  H   UNL     1     -11.267  52.995  51.535  0.00  0.00    +0.000 HD
ATOM     14  H   UNL     1      -8.141  54.727  49.731  0.00  0.00    +0.000 HD
ENDROOT
BRANCH   6  15
ATOM     15  C   UNL     1     -10.742  54.651  49.737  0.00  0.00    +0.000 A 
ATOM     16  C   UNL     1     -10.711  54.330  48.275  0.00  0.00    +0.000 A 
ATOM     17  C   UNL     1     -11.639  55.533  50.210  0.00  0.00    +0.000 A 
ATOM     18  O   UNL     1      -9.947  53.442  47.882  0.00  0.00    +0.000 OA
ATOM     19  N   UNL     1     -11.540  55.036  47.430  0.00  0.00    +0.000 N 
ATOM     20  C   UNL     1     -12.518  56.253  49.288  0.00  0.00    +0.000 A 
ATOM     21  C   UNL     1     -12.439  56.021  47.912  0.00  0.00    +0.000 A 
ATOM     22  C   UNL     1     -13.423  57.219  49.742  0.00  0.00    +0.000 A 
ATOM     23  N   UNL     1     -13.191  56.702  47.015  0.00  0.00    +0.000 NA
ATOM     24  C   UNL     1     -14.193  57.929  48.830  0.00  0.00    +0.000 A 
ATOM     25  C   UNL     1     -14.041  57.638  47.489  0.00  0.00    +0.000 A 
BRANCH  17  26
ATOM     26  O   UNL     1     -11.798  55.860  51.545  0.00  0.00    +0.000 OA
ATOM     27  H   UNL     1     -11.494  56.687  51.864  0.00  0.00    +0.000 HD
ENDBRANCH  17  26
BRANCH  19  28
ATOM     28  C   UNL     1     -11.467  54.806  45.983  0.00  0.00    +0.000 C 
BRANCH  28  29
ATOM     29  C   UNL     1     -12.093  53.463  45.590  0.00  0.00    +0.000 C 
BRANCH  29  30
ATOM     30  C   UNL     1     -11.252  52.634  44.600  0.00  0.00    +0.000 C 
ATOM     31  C   UNL     1      -9.816  53.145  44.472  0.00  0.00    +0.000 C 
ATOM     32  C   UNL     1     -11.231  51.169  45.048  0.00  0.00    +0.000 C 
ENDBRANCH  29  30
ENDBRANCH  28  29
ENDBRANCH  19  28
ENDBRANCH   6  15
BRANCH  11  33
ATOM     33  O   UNL     1      -4.456  52.881  54.171  0.00  0.00    +0.000 OA
BRANCH  33  34
ATOM     34  C   UNL     1      -3.301  52.330  53.539  0.00  0.00    +0.000 C 
BRANCH  34  35
ATOM     35  C   UNL     1      -3.459  50.817  53.409  0.00  0.00    +0.000 C 
ATOM     36  O   UNL     1      -3.477  50.060  54.373  0.00  0.00    +0.000 OA
ATOM     37  N   UNL     1      -3.598  50.341  52.136  0.00  0.00    +0.000 N 
ATOM     38  H   UNL     1      -3.583  50.963  51.373  0.00  0.00    +0.000 HD
ATOM     39  H   UNL     1      -3.716  49.376  51.981  0.00  0.00    +0.000 HD
ENDBRANCH  34  35
ENDBRANCH  33  34
ENDBRANCH  11  33
TORSDOF 8
ENDMDL
MODEL 8
REMARK VINA RESULT:      -6.7      4.895      9.482
REMARK  Name = 352769
REMARK  10 active torsions:
REMARK  status: ('A' for Active; 'I' for Inactive)
REMARK    1  A    between atoms: C_6  and  C_10
REMARK    2  A    between atoms: C_12  and  O_16
REMARK    3  A    between atoms: C_14  and  O_19
REMARK    4  A    between atoms: O_16  and  C_21
REMARK    5  A    between atoms: N_18  and  C_23
REMARK    6  A    between atoms: C_21  and  C_25
REMARK    7  A    between atoms: C_23  and  C_27
REMARK    8  A    between atoms: C_27  and  C_32
REMARK    9  A    between atoms: C_32  and  C_33
REMARK   10  A    between atoms: C_32  and  C_34
REMARK                            x       y       z     vdW  Elec       q    Type
REMARK                         _______ _______ _______ _____ _____    ______ ____
ROOT
ATOM      1  S   UNL     1      -7.530  51.227  51.109  0.00  0.00    +0.000 S 
ATOM      2  O   UNL     1      -6.925  49.911  51.126  0.00  0.00    +0.000 OA
ATOM      3  O   UNL     1      -8.524  51.593  52.097  0.00  0.00    +0.000 OA
ATOM      4  N   UNL     1      -8.181  51.453  49.644  0.00  0.00    +0.000 N 
ATOM      5  C   UNL     1      -6.216  52.373  51.301  0.00  0.00    +0.000 A 
ATOM      6  C   UNL     1      -7.654  52.281  48.791  0.00  0.00    +0.000 C 
ATOM      7  C   UNL     1      -5.860  53.143  50.207  0.00  0.00    +0.000 A 
ATOM      8  C   UNL     1      -5.577  52.484  52.539  0.00  0.00    +0.000 A 
ATOM      9  N   UNL     1      -6.502  53.008  48.982  0.00  0.00    +0.000 N 
ATOM     10  C   UNL     1      -4.770  54.004  50.337  0.00  0.00    +0.000 A 
ATOM     11  C   UNL     1      -4.517  53.374  52.663  0.00  0.00    +0.000 A 
ATOM     12  C   UNL     1      -4.104  54.118  51.557  0.00  0.00    +0.000 A 
ATOM     13  H   UNL     1      -8.993  50.954  49.394  0.00  0.00    +0.000 HD
ATOM     14  H   UNL     1      -6.109  53.461  48.202  0.00  0.00    +0.000 HD
ENDROOT
BRANCH   6  15
ATOM     15  C   UNL     1      -8.409  52.471  47.494  0.00  0.00    +0.000 A 
ATOM     16  C   UNL     1      -9.748  53.140  47.514  0.00  0.00    +0.000 A 
ATOM     17  C   UNL     1      -7.881  52.062  46.328  0.00  0.00    +0.000 A 
ATOM     18  O   UNL     1     -10.163  53.598  48.584  0.00  0.00    +0.000 OA
ATOM     19  N   UNL     1     -10.458  53.221  46.335  0.00  0.00    +0.000 N 
ATOM     20  C   UNL     1      -8.654  52.179  45.091  0.00  0.00    +0.000 A 
ATOM     21  C   UNL     1      -9.940  52.726  45.112  0.00  0.00    +0.000 A 
ATOM     22  C   UNL     1      -8.158  51.710  43.870  0.00  0.00    +0.000 A 
ATOM     23  N   UNL     1     -10.716  52.804  44.005  0.00  0.00    +0.000 NA
ATOM     24  C   UNL     1      -8.948  51.777  42.730  0.00  0.00    +0.000 A 
ATOM     25  C   UNL     1     -10.209  52.327  42.848  0.00  0.00    +0.000 A 
BRANCH  17  26
ATOM     26  O   UNL     1      -6.630  51.489  46.184  0.00  0.00    +0.000 OA
ATOM     27  H   UNL     1      -6.528  50.708  45.675  0.00  0.00    +0.000 HD
ENDBRANCH  17  26
BRANCH  19  28
ATOM     28  C   UNL     1     -11.810  53.790  46.342  0.00  0.00    +0.000 C 
BRANCH  28  29
ATOM     29  C   UNL     1     -11.782  55.319  46.469  0.00  0.00    +0.000 C 
BRANCH  29  30
ATOM     30  C   UNL     1     -12.625  55.876  47.631  0.00  0.00    +0.000 C 
ATOM     31  C   UNL     1     -11.769  56.386  48.792  0.00  0.00    +0.000 C 
ATOM     32  C   UNL     1     -13.514  57.015  47.118  0.00  0.00    +0.000 C 
ENDBRANCH  29  30
ENDBRANCH  28  29
ENDBRANCH  19  28
ENDBRANCH   6  15
BRANCH  11  33
ATOM     33  O   UNL     1      -3.773  53.560  53.791  0.00  0.00    +0.000 OA
BRANCH  33  34
ATOM     34  C   UNL     1      -3.917  54.827  54.433  0.00  0.00    +0.000 C 
BRANCH  34  35
ATOM     35  C   UNL     1      -5.398  55.161  54.584  0.00  0.00    +0.000 C 
ATOM     36  O   UNL     1      -5.959  56.033  53.929  0.00  0.00    +0.000 OA
ATOM     37  N   UNL     1      -6.087  54.412  55.496  0.00  0.00    +0.000 N 
ATOM     38  H   UNL     1      -5.621  53.716  56.012  0.00  0.00    +0.000 HD
ATOM     39  H   UNL     1      -7.049  54.568  55.635  0.00  0.00    +0.000 HD
ENDBRANCH  34  35
ENDBRANCH  33  34
ENDBRANCH  11  33
TORSDOF 8
ENDMDL
MODEL 9
REMARK VINA RESULT:      -6.6      3.491      9.074
REMARK  Name = 352769
REMARK  10 active torsions:
REMARK  status: ('A' for Active; 'I' for Inactive)
REMARK    1  A    between atoms: C_6  and  C_10
REMARK    2  A    between atoms: C_12  and  O_16
REMARK    3  A    between atoms: C_14  and  O_19
REMARK    4  A    between atoms: O_16  and  C_21
REMARK    5  A    between atoms: N_18  and  C_23
REMARK    6  A    between atoms: C_21  and  C_25
REMARK    7  A    between atoms: C_23  and  C_27
REMARK    8  A    between atoms: C_27  and  C_32
REMARK    9  A    between atoms: C_32  and  C_33
REMARK   10  A    between atoms: C_32  and  C_34
REMARK                            x       y       z     vdW  Elec       q    Type
REMARK                         _______ _______ _______ _____ _____    ______ ____
ROOT
ATOM      1  S   UNL     1      -6.856  55.336  52.102  0.00  0.00    +0.000 S 
ATOM      2  O   UNL     1      -6.801  56.150  53.299  0.00  0.00    +0.000 OA
ATOM      3  O   UNL     1      -5.791  55.394  51.122  0.00  0.00    +0.000 OA
ATOM      4  N   UNL     1      -8.247  55.670  51.341  0.00  0.00    +0.000 N 
ATOM      5  C   UNL     1      -6.921  53.670  52.644  0.00  0.00    +0.000 A 
ATOM      6  C   UNL     1      -9.224  54.812  51.314  0.00  0.00    +0.000 C 
ATOM      7  C   UNL     1      -8.111  52.980  52.486  0.00  0.00    +0.000 A 
ATOM      8  C   UNL     1      -5.783  53.085  53.207  0.00  0.00    +0.000 A 
ATOM      9  N   UNL     1      -9.235  53.584  51.935  0.00  0.00    +0.000 N 
ATOM     10  C   UNL     1      -8.187  51.678  52.981  0.00  0.00    +0.000 A 
ATOM     11  C   UNL     1      -5.863  51.774  53.660  0.00  0.00    +0.000 A 
ATOM     12  C   UNL     1      -7.070  51.080  53.564  0.00  0.00    +0.000 A 
ATOM     13  H   UNL     1      -8.354  56.538  50.891  0.00  0.00    +0.000 HD
ATOM     14  H   UNL     1     -10.092  53.104  51.991  0.00  0.00    +0.000 HD
ENDROOT
BRANCH   6  15
ATOM     15  C   UNL     1     -10.432  55.206  50.494  0.00  0.00    +0.000 A 
ATOM     16  C   UNL     1     -10.336  55.214  49.000  0.00  0.00    +0.000 A 
ATOM     17  C   UNL     1     -11.590  55.529  51.093  0.00  0.00    +0.000 A 
ATOM     18  O   UNL     1      -9.293  54.813  48.474  0.00  0.00    +0.000 OA
ATOM     19  N   UNL     1     -11.420  55.662  48.276  0.00  0.00    +0.000 N 
ATOM     20  C   UNL     1     -12.728  55.985  50.294  0.00  0.00    +0.000 A 
ATOM     21  C   UNL     1     -12.622  56.076  48.903  0.00  0.00    +0.000 A 
ATOM     22  C   UNL     1     -13.930  56.385  50.889  0.00  0.00    +0.000 A 
ATOM     23  N   UNL     1     -13.626  56.545  48.125  0.00  0.00    +0.000 NA
ATOM     24  C   UNL     1     -14.963  56.875  50.103  0.00  0.00    +0.000 A 
ATOM     25  C   UNL     1     -14.765  56.937  48.737  0.00  0.00    +0.000 A 
BRANCH  17  26
ATOM     26  O   UNL     1     -11.811  55.498  52.459  0.00  0.00    +0.000 OA
ATOM     27  H   UNL     1     -11.772  54.684  52.921  0.00  0.00    +0.000 HD
ENDBRANCH  17  26
BRANCH  19  28
ATOM     28  C   UNL     1     -11.322  55.766  46.816  0.00  0.00    +0.000 C 
BRANCH  28  29
ATOM     29  C   UNL     1     -11.836  54.499  46.121  0.00  0.00    +0.000 C 
BRANCH  29  30
ATOM     30  C   UNL     1     -10.735  53.491  45.741  0.00  0.00    +0.000 C 
ATOM     31  C   UNL     1     -10.735  52.250  46.634  0.00  0.00    +0.000 C 
ATOM     32  C   UNL     1     -10.914  53.065  44.279  0.00  0.00    +0.000 C 
ENDBRANCH  29  30
ENDBRANCH  28  29
ENDBRANCH  19  28
ENDBRANCH   6  15
BRANCH  11  33
ATOM     33  O   UNL     1      -4.852  51.089  54.267  0.00  0.00    +0.000 OA
BRANCH  33  34
ATOM     34  C   UNL     1      -3.573  51.176  53.639  0.00  0.00    +0.000 C 
BRANCH  34  35
ATOM     35  C   UNL     1      -3.579  50.363  52.347  0.00  0.00    +0.000 C 
ATOM     36  O   UNL     1      -3.829  49.162  52.311  0.00  0.00    +0.000 OA
ATOM     37  N   UNL     1      -3.302  51.060  51.205  0.00  0.00    +0.000 N 
ATOM     38  H   UNL     1      -3.105  52.023  51.251  0.00  0.00    +0.000 HD
ATOM     39  H   UNL     1      -3.300  50.598  50.335  0.00  0.00    +0.000 HD
ENDBRANCH  34  35
ENDBRANCH  33  34
ENDBRANCH  11  33
TORSDOF 8
ENDMDL
