MODEL 1
REMARK VINA RESULT:      -8.0      0.000      0.000
REMARK  Name = 350570
REMARK  10 active torsions:
REMARK  status: ('A' for Active; 'I' for Inactive)
REMARK    1  A    between atoms: C_6  and  C_10
REMARK    2  A    between atoms: C_12  and  N_16
REMARK    3  A    between atoms: C_14  and  O_19
REMARK    4  A    between atoms: N_16  and  S_21
REMARK    5  A    between atoms: N_18  and  C_23
REMARK    6  A    between atoms: S_21  and  C_27
REMARK    7  A    between atoms: C_23  and  C_29
REMARK    8  A    between atoms: C_29  and  C_32
REMARK    9  A    between atoms: C_32  and  C_33
REMARK   10  A    between atoms: C_32  and  C_34
REMARK                            x       y       z     vdW  Elec       q    Type
REMARK                         _______ _______ _______ _____ _____    ______ ____
ROOT
ATOM      1  S   UNL     1      -9.926  55.423  49.469  0.00  0.00    +0.000 S 
ATOM      2  O   UNL     1     -10.332  54.534  48.398  0.00  0.00    +0.000 OA
ATOM      3  O   UNL     1      -9.032  56.533  49.199  0.00  0.00    +0.000 OA
ATOM      4  N   UNL     1      -9.278  54.527  50.645  0.00  0.00    +0.000 N 
ATOM      5  C   UNL     1     -11.401  56.145  50.081  0.00  0.00    +0.000 A 
ATOM      6  C   UNL     1      -9.900  54.339  51.773  0.00  0.00    +0.000 C 
ATOM      7  C   UNL     1     -11.840  55.757  51.338  0.00  0.00    +0.000 A 
ATOM      8  C   UNL     1     -12.092  57.072  49.298  0.00  0.00    +0.000 A 
ATOM      9  N   UNL     1     -11.150  54.813  52.090  0.00  0.00    +0.000 N 
ATOM     10  C   UNL     1     -13.049  56.275  51.804  0.00  0.00    +0.000 A 
ATOM     11  C   UNL     1     -13.289  57.576  49.780  0.00  0.00    +0.000 A 
ATOM     12  C   UNL     1     -13.771  57.183  51.029  0.00  0.00    +0.000 A 
ATOM     13  H   UNL     1      -8.394  54.114  50.507  0.00  0.00    +0.000 HD
ATOM     14  H   UNL     1     -11.585  54.461  52.900  0.00  0.00    +0.000 HD
ENDROOT
BRANCH   6  15
ATOM     15  C   UNL     1      -9.146  53.556  52.824  0.00  0.00    +0.000 A 
ATOM     16  C   UNL     1      -7.680  53.797  53.014  0.00  0.00    +0.000 A 
ATOM     17  C   UNL     1      -9.783  52.658  53.597  0.00  0.00    +0.000 A 
ATOM     18  O   UNL     1      -7.146  54.708  52.370  0.00  0.00    +0.000 OA
ATOM     19  N   UNL     1      -6.992  52.997  53.899  0.00  0.00    +0.000 N 
ATOM     20  C   UNL     1      -9.027  51.842  54.548  0.00  0.00    +0.000 A 
ATOM     21  C   UNL     1      -7.643  51.996  54.665  0.00  0.00    +0.000 A 
ATOM     22  C   UNL     1      -9.649  50.856  55.321  0.00  0.00    +0.000 A 
ATOM     23  N   UNL     1      -6.892  51.224  55.486  0.00  0.00    +0.000 NA
ATOM     24  C   UNL     1      -8.889  50.053  56.162  0.00  0.00    +0.000 A 
ATOM     25  C   UNL     1      -7.526  50.273  56.207  0.00  0.00    +0.000 A 
BRANCH  17  26
ATOM     26  O   UNL     1     -11.141  52.396  53.550  0.00  0.00    +0.000 OA
ATOM     27  H   UNL     1     -11.444  51.530  53.359  0.00  0.00    +0.000 HD
ENDBRANCH  17  26
BRANCH  19  28
ATOM     28  C   UNL     1      -5.539  53.149  54.035  0.00  0.00    +0.000 C 
BRANCH  28  29
ATOM     29  C   UNL     1      -4.779  52.332  52.980  0.00  0.00    +0.000 C 
BRANCH  29  30
ATOM     30  C   UNL     1      -3.750  53.140  52.166  0.00  0.00    +0.000 C 
ATOM     31  C   UNL     1      -4.290  53.593  50.808  0.00  0.00    +0.000 C 
ATOM     32  C   UNL     1      -3.311  54.368  52.972  0.00  0.00    +0.000 C 
ENDBRANCH  29  30
ENDBRANCH  28  29
ENDBRANCH  19  28
ENDBRANCH   6  15
BRANCH  11  33
ATOM     33  N   UNL     1     -14.071  58.453  48.999  0.00  0.00    +0.000 N 
ATOM     34  H   UNL     1     -14.519  58.130  48.184  0.00  0.00    +0.000 HD
BRANCH  33  35
ATOM     35  S   UNL     1     -14.226  60.055  49.474  0.00  0.00    +0.000 S 
ATOM     36  O   UNL     1     -12.960  60.535  49.986  0.00  0.00    +0.000 OA
ATOM     37  O   UNL     1     -14.903  60.728  48.387  0.00  0.00    +0.000 OA
ATOM     38  C   UNL     1     -15.382  59.943  50.822  0.00  0.00    +0.000 C 
ENDBRANCH  33  35
ENDBRANCH  11  33
TORSDOF 7
ENDMDL
MODEL 2
REMARK VINA RESULT:      -7.1      2.764      3.479
REMARK  Name = 350570
REMARK  10 active torsions:
REMARK  status: ('A' for Active; 'I' for Inactive)
REMARK    1  A    between atoms: C_6  and  C_10
REMARK    2  A    between atoms: C_12  and  N_16
REMARK    3  A    between atoms: C_14  and  O_19
REMARK    4  A    between atoms: N_16  and  S_21
REMARK    5  A    between atoms: N_18  and  C_23
REMARK    6  A    between atoms: S_21  and  C_27
REMARK    7  A    between atoms: C_23  and  C_29
REMARK    8  A    between atoms: C_29  and  C_32
REMARK    9  A    between atoms: C_32  and  C_33
REMARK   10  A    between atoms: C_32  and  C_34
REMARK                            x       y       z     vdW  Elec       q    Type
REMARK                         _______ _______ _______ _____ _____    ______ ____
ROOT
ATOM      1  S   UNL     1     -11.253  54.663  48.240  0.00  0.00    +0.000 S 
ATOM      2  O   UNL     1     -12.229  53.690  47.793  0.00  0.00    +0.000 OA
ATOM      3  O   UNL     1     -10.880  55.772  47.383  0.00  0.00    +0.000 OA
ATOM      4  N   UNL     1      -9.908  53.870  48.654  0.00  0.00    +0.000 N 
ATOM      5  C   UNL     1     -11.925  55.391  49.685  0.00  0.00    +0.000 A 
ATOM      6  C   UNL     1      -9.551  53.749  49.900  0.00  0.00    +0.000 C 
ATOM      7  C   UNL     1     -11.334  55.085  50.901  0.00  0.00    +0.000 A 
ATOM      8  C   UNL     1     -13.028  56.241  49.579  0.00  0.00    +0.000 A 
ATOM      9  N   UNL     1     -10.254  54.214  50.986  0.00  0.00    +0.000 N 
ATOM     10  C   UNL     1     -11.906  55.605  52.064  0.00  0.00    +0.000 A 
ATOM     11  C   UNL     1     -13.579  56.750  50.745  0.00  0.00    +0.000 A 
ATOM     12  C   UNL     1     -13.024  56.437  51.986  0.00  0.00    +0.000 A 
ATOM     13  H   UNL     1      -9.347  53.471  47.951  0.00  0.00    +0.000 HD
ATOM     14  H   UNL     1      -9.974  53.911  51.880  0.00  0.00    +0.000 HD
ENDROOT
BRANCH   6  15
ATOM     15  C   UNL     1      -8.227  53.063  50.147  0.00  0.00    +0.000 A 
ATOM     16  C   UNL     1      -7.106  53.828  50.779  0.00  0.00    +0.000 A 
ATOM     17  C   UNL     1      -8.054  51.771  49.818  0.00  0.00    +0.000 A 
ATOM     18  O   UNL     1      -7.330  54.979  51.176  0.00  0.00    +0.000 OA
ATOM     19  N   UNL     1      -5.877  53.218  50.895  0.00  0.00    +0.000 N 
ATOM     20  C   UNL     1      -6.741  51.143  49.979  0.00  0.00    +0.000 A 
ATOM     21  C   UNL     1      -5.665  51.878  50.481  0.00  0.00    +0.000 A 
ATOM     22  C   UNL     1      -6.511  49.819  49.587  0.00  0.00    +0.000 A 
ATOM     23  N   UNL     1      -4.419  51.360  50.592  0.00  0.00    +0.000 NA
ATOM     24  C   UNL     1      -5.236  49.279  49.689  0.00  0.00    +0.000 A 
ATOM     25  C   UNL     1      -4.232  50.083  50.192  0.00  0.00    +0.000 A 
BRANCH  17  26
ATOM     26  O   UNL     1      -9.033  50.951  49.284  0.00  0.00    +0.000 OA
ATOM     27  H   UNL     1      -9.480  51.205  48.500  0.00  0.00    +0.000 HD
ENDBRANCH  17  26
BRANCH  19  28
ATOM     28  C   UNL     1      -4.738  53.977  51.424  0.00  0.00    +0.000 C 
BRANCH  28  29
ATOM     29  C   UNL     1      -4.554  53.754  52.932  0.00  0.00    +0.000 C 
BRANCH  29  30
ATOM     30  C   UNL     1      -4.976  54.948  53.810  0.00  0.00    +0.000 C 
ATOM     31  C   UNL     1      -6.005  54.566  54.876  0.00  0.00    +0.000 C 
ATOM     32  C   UNL     1      -3.739  55.544  54.491  0.00  0.00    +0.000 C 
ENDBRANCH  29  30
ENDBRANCH  28  29
ENDBRANCH  19  28
ENDBRANCH   6  15
BRANCH  11  33
ATOM     33  N   UNL     1     -14.741  57.549  50.706  0.00  0.00    +0.000 N 
ATOM     34  H   UNL     1     -15.614  57.149  50.491  0.00  0.00    +0.000 HD
BRANCH  33  35
ATOM     35  S   UNL     1     -14.617  59.191  51.030  0.00  0.00    +0.000 S 
ATOM     36  O   UNL     1     -15.851  59.854  50.666  0.00  0.00    +0.000 OA
ATOM     37  O   UNL     1     -14.073  59.292  52.367  0.00  0.00    +0.000 OA
ATOM     38  C   UNL     1     -13.338  59.706  49.906  0.00  0.00    +0.000 C 
ENDBRANCH  33  35
ENDBRANCH  11  33
TORSDOF 7
ENDMDL
MODEL 3
REMARK VINA RESULT:      -6.9      2.884      9.425
REMARK  Name = 350570
REMARK  10 active torsions:
REMARK  status: ('A' for Active; 'I' for Inactive)
REMARK    1  A    between atoms: C_6  and  C_10
REMARK    2  A    between atoms: C_12  and  N_16
REMARK    3  A    between atoms: C_14  and  O_19
REMARK    4  A    between atoms: N_16  and  S_21
REMARK    5  A    between atoms: N_18  and  C_23
REMARK    6  A    between atoms: S_21  and  C_27
REMARK    7  A    between atoms: C_23  and  C_29
REMARK    8  A    between atoms: C_29  and  C_32
REMARK    9  A    between atoms: C_32  and  C_33
REMARK   10  A    between atoms: C_32  and  C_34
REMARK                            x       y       z     vdW  Elec       q    Type
REMARK                         _______ _______ _______ _____ _____    ______ ____
ROOT
ATOM      1  S   UNL     1      -7.206  55.423  52.307  0.00  0.00    +0.000 S 
ATOM      2  O   UNL     1      -7.005  56.236  53.490  0.00  0.00    +0.000 OA
ATOM      3  O   UNL     1      -6.186  55.364  51.277  0.00  0.00    +0.000 OA
ATOM      4  N   UNL     1      -8.594  55.879  51.617  0.00  0.00    +0.000 N 
ATOM      5  C   UNL     1      -7.395  53.778  52.878  0.00  0.00    +0.000 A 
ATOM      6  C   UNL     1      -9.649  55.118  51.653  0.00  0.00    +0.000 C 
ATOM      7  C   UNL     1      -8.653  53.201  52.793  0.00  0.00    +0.000 A 
ATOM      8  C   UNL     1      -6.293  53.101  53.405  0.00  0.00    +0.000 A 
ATOM      9  N   UNL     1      -9.742  53.903  52.290  0.00  0.00    +0.000 N 
ATOM     10  C   UNL     1      -8.827  51.916  53.310  0.00  0.00    +0.000 A 
ATOM     11  C   UNL     1      -6.487  51.824  53.910  0.00  0.00    +0.000 A 
ATOM     12  C   UNL     1      -7.747  51.229  53.865  0.00  0.00    +0.000 A 
ATOM     13  H   UNL     1      -8.642  56.749  51.159  0.00  0.00    +0.000 HD
ATOM     14  H   UNL     1     -10.636  53.506  52.396  0.00  0.00    +0.000 HD
ENDROOT
BRANCH   6  15
ATOM     15  C   UNL     1     -10.856  55.619  50.893  0.00  0.00    +0.000 A 
ATOM     16  C   UNL     1     -12.148  55.833  51.618  0.00  0.00    +0.000 A 
ATOM     17  C   UNL     1     -10.773  55.887  49.578  0.00  0.00    +0.000 A 
ATOM     18  O   UNL     1     -12.164  55.688  52.847  0.00  0.00    +0.000 OA
ATOM     19  N   UNL     1     -13.261  56.185  50.888  0.00  0.00    +0.000 N 
ATOM     20  C   UNL     1     -11.970  56.286  48.835  0.00  0.00    +0.000 A 
ATOM     21  C   UNL     1     -13.201  56.397  49.487  0.00  0.00    +0.000 A 
ATOM     22  C   UNL     1     -11.932  56.511  47.454  0.00  0.00    +0.000 A 
ATOM     23  N   UNL     1     -14.346  56.704  48.832  0.00  0.00    +0.000 NA
ATOM     24  C   UNL     1     -13.101  56.819  46.770  0.00  0.00    +0.000 A 
ATOM     25  C   UNL     1     -14.272  56.901  47.498  0.00  0.00    +0.000 A 
BRANCH  17  26
ATOM     26  O   UNL     1      -9.621  55.783  48.819  0.00  0.00    +0.000 OA
ATOM     27  H   UNL     1      -8.790  55.675  49.241  0.00  0.00    +0.000 HD
ENDBRANCH  17  26
BRANCH  19  28
ATOM     28  C   UNL     1     -14.560  56.308  51.560  0.00  0.00    +0.000 C 
BRANCH  28  29
ATOM     29  C   UNL     1     -14.555  57.427  52.612  0.00  0.00    +0.000 C 
BRANCH  29  30
ATOM     30  C   UNL     1     -15.254  58.726  52.166  0.00  0.00    +0.000 C 
ATOM     31  C   UNL     1     -15.642  59.625  53.342  0.00  0.00    +0.000 C 
ATOM     32  C   UNL     1     -14.333  59.502  51.217  0.00  0.00    +0.000 C 
ENDBRANCH  29  30
ENDBRANCH  28  29
ENDBRANCH  19  28
ENDBRANCH   6  15
BRANCH  11  33
ATOM     33  N   UNL     1      -5.429  51.123  54.527  0.00  0.00    +0.000 N 
ATOM     34  H   UNL     1      -5.538  50.753  55.432  0.00  0.00    +0.000 HD
BRANCH  33  35
ATOM     35  S   UNL     1      -3.982  50.930  53.699  0.00  0.00    +0.000 S 
ATOM     36  O   UNL     1      -3.342  52.217  53.531  0.00  0.00    +0.000 OA
ATOM     37  O   UNL     1      -3.300  49.828  54.342  0.00  0.00    +0.000 OA
ATOM     38  C   UNL     1      -4.528  50.351  52.107  0.00  0.00    +0.000 C 
ENDBRANCH  33  35
ENDBRANCH  11  33
TORSDOF 7
ENDMDL
MODEL 4
REMARK VINA RESULT:      -6.8      4.187      5.844
REMARK  Name = 350570
REMARK  10 active torsions:
REMARK  status: ('A' for Active; 'I' for Inactive)
REMARK    1  A    between atoms: C_6  and  C_10
REMARK    2  A    between atoms: C_12  and  N_16
REMARK    3  A    between atoms: C_14  and  O_19
REMARK    4  A    between atoms: N_16  and  S_21
REMARK    5  A    between atoms: N_18  and  C_23
REMARK    6  A    between atoms: S_21  and  C_27
REMARK    7  A    between atoms: C_23  and  C_29
REMARK    8  A    between atoms: C_29  and  C_32
REMARK    9  A    between atoms: C_32  and  C_33
REMARK   10  A    between atoms: C_32  and  C_34
REMARK                            x       y       z     vdW  Elec       q    Type
REMARK                         _______ _______ _______ _____ _____    ______ ____
ROOT
ATOM      1  S   UNL     1     -11.451  54.410  50.681  0.00  0.00    +0.000 S 
ATOM      2  O   UNL     1     -10.590  55.298  51.437  0.00  0.00    +0.000 OA
ATOM      3  O   UNL     1     -12.348  53.501  51.368  0.00  0.00    +0.000 OA
ATOM      4  N   UNL     1     -10.524  53.545  49.680  0.00  0.00    +0.000 N 
ATOM      5  C   UNL     1     -12.481  55.446  49.714  0.00  0.00    +0.000 A 
ATOM      6  C   UNL     1     -10.533  53.759  48.396  0.00  0.00    +0.000 C 
ATOM      7  C   UNL     1     -12.267  55.479  48.344  0.00  0.00    +0.000 A 
ATOM      8  C   UNL     1     -13.471  56.210  50.337  0.00  0.00    +0.000 A 
ATOM      9  N   UNL     1     -11.258  54.730  47.749  0.00  0.00    +0.000 N 
ATOM     10  C   UNL     1     -13.037  56.353  47.575  0.00  0.00    +0.000 A 
ATOM     11  C   UNL     1     -14.226  57.069  49.555  0.00  0.00    +0.000 A 
ATOM     12  C   UNL     1     -14.015  57.145  48.178  0.00  0.00    +0.000 A 
ATOM     13  H   UNL     1      -9.942  52.842  50.048  0.00  0.00    +0.000 HD
ATOM     14  H   UNL     1     -11.049  54.908  46.803  0.00  0.00    +0.000 HD
ENDROOT
BRANCH   6  15
ATOM     15  C   UNL     1      -9.689  52.823  47.562  0.00  0.00    +0.000 A 
ATOM     16  C   UNL     1      -8.272  52.551  47.963  0.00  0.00    +0.000 A 
ATOM     17  C   UNL     1     -10.205  52.224  46.474  0.00  0.00    +0.000 A 
ATOM     18  O   UNL     1      -7.862  53.025  49.029  0.00  0.00    +0.000 OA
ATOM     19  N   UNL     1      -7.490  51.783  47.130  0.00  0.00    +0.000 N 
ATOM     20  C   UNL     1      -9.352  51.391  45.623  0.00  0.00    +0.000 A 
ATOM     21  C   UNL     1      -8.004  51.207  45.940  0.00  0.00    +0.000 A 
ATOM     22  C   UNL     1      -9.840  50.804  44.450  0.00  0.00    +0.000 A 
ATOM     23  N   UNL     1      -7.162  50.496  45.153  0.00  0.00    +0.000 NA
ATOM     24  C   UNL     1      -8.985  50.078  43.631  0.00  0.00    +0.000 A 
ATOM     25  C   UNL     1      -7.667  49.956  44.022  0.00  0.00    +0.000 A 
BRANCH  17  26
ATOM     26  O   UNL     1     -11.513  52.354  46.043  0.00  0.00    +0.000 OA
ATOM     27  H   UNL     1     -11.906  53.203  45.989  0.00  0.00    +0.000 HD
ENDBRANCH  17  26
BRANCH  19  28
ATOM     28  C   UNL     1      -6.072  51.579  47.451  0.00  0.00    +0.000 C 
BRANCH  28  29
ATOM     29  C   UNL     1      -5.253  52.863  47.257  0.00  0.00    +0.000 C 
BRANCH  29  30
ATOM     30  C   UNL     1      -4.357  53.236  48.455  0.00  0.00    +0.000 C 
ATOM     31  C   UNL     1      -4.741  54.573  49.090  0.00  0.00    +0.000 C 
ATOM     32  C   UNL     1      -4.434  52.131  49.514  0.00  0.00    +0.000 C 
ENDBRANCH  29  30
ENDBRANCH  28  29
ENDBRANCH  19  28
ENDBRANCH   6  15
BRANCH  11  33
ATOM     33  N   UNL     1     -15.185  57.923  50.140  0.00  0.00    +0.000 N 
ATOM     34  H   UNL     1     -16.129  57.649  50.196  0.00  0.00    +0.000 HD
BRANCH  33  35
ATOM     35  S   UNL     1     -14.697  59.414  50.737  0.00  0.00    +0.000 S 
ATOM     36  O   UNL     1     -13.384  59.738  50.223  0.00  0.00    +0.000 OA
ATOM     37  O   UNL     1     -15.822  60.305  50.548  0.00  0.00    +0.000 OA
ATOM     38  C   UNL     1     -14.566  59.101  52.484  0.00  0.00    +0.000 C 
ENDBRANCH  33  35
ENDBRANCH  11  33
TORSDOF 7
ENDMDL
MODEL 5
REMARK VINA RESULT:      -6.8      4.248      6.122
REMARK  Name = 350570
REMARK  10 active torsions:
REMARK  status: ('A' for Active; 'I' for Inactive)
REMARK    1  A    between atoms: C_6  and  C_10
REMARK    2  A    between atoms: C_12  and  N_16
REMARK    3  A    between atoms: C_14  and  O_19
REMARK    4  A    between atoms: N_16  and  S_21
REMARK    5  A    between atoms: N_18  and  C_23
REMARK    6  A    between atoms: S_21  and  C_27
REMARK    7  A    between atoms: C_23  and  C_29
REMARK    8  A    between atoms: C_29  and  C_32
REMARK    9  A    between atoms: C_32  and  C_33
REMARK   10  A    between atoms: C_32  and  C_34
REMARK                            x       y       z     vdW  Elec       q    Type
REMARK                         _______ _______ _______ _____ _____    ______ ____
ROOT
ATOM      1  S   UNL     1     -10.942  54.504  51.196  0.00  0.00    +0.000 S 
ATOM      2  O   UNL     1     -10.253  55.471  52.026  0.00  0.00    +0.000 OA
ATOM      3  O   UNL     1     -11.850  53.542  51.792  0.00  0.00    +0.000 OA
ATOM      4  N   UNL     1      -9.833  53.692  50.347  0.00  0.00    +0.000 N 
ATOM      5  C   UNL     1     -11.914  55.436  50.074  0.00  0.00    +0.000 A 
ATOM      6  C   UNL     1      -9.692  53.877  49.067  0.00  0.00    +0.000 C 
ATOM      7  C   UNL     1     -11.529  55.455  48.742  0.00  0.00    +0.000 A 
ATOM      8  C   UNL     1     -13.029  56.133  50.543  0.00  0.00    +0.000 A 
ATOM      9  N   UNL     1     -10.398  54.775  48.303  0.00  0.00    +0.000 N 
ATOM     10  C   UNL     1     -12.256  56.250  47.855  0.00  0.00    +0.000 A 
ATOM     11  C   UNL     1     -13.740  56.914  49.646  0.00  0.00    +0.000 A 
ATOM     12  C   UNL     1     -13.360  56.976  48.305  0.00  0.00    +0.000 A 
ATOM     13  H   UNL     1      -9.252  53.045  50.808  0.00  0.00    +0.000 HD
ATOM     14  H   UNL     1     -10.084  54.948  47.386  0.00  0.00    +0.000 HD
ENDROOT
BRANCH   6  15
ATOM     15  C   UNL     1      -8.681  52.992  48.375  0.00  0.00    +0.000 A 
ATOM     16  C   UNL     1      -9.103  52.169  47.197  0.00  0.00    +0.000 A 
ATOM     17  C   UNL     1      -7.406  52.948  48.800  0.00  0.00    +0.000 A 
ATOM     18  O   UNL     1     -10.251  52.317  46.759  0.00  0.00    +0.000 OA
ATOM     19  N   UNL     1      -8.197  51.289  46.651  0.00  0.00    +0.000 N 
ATOM     20  C   UNL     1      -6.458  52.020  48.180  0.00  0.00    +0.000 A 
ATOM     21  C   UNL     1      -6.870  51.181  47.141  0.00  0.00    +0.000 A 
ATOM     22  C   UNL     1      -5.141  51.904  48.640  0.00  0.00    +0.000 A 
ATOM     23  N   UNL     1      -6.047  50.265  46.577  0.00  0.00    +0.000 NA
ATOM     24  C   UNL     1      -4.291  50.963  48.074  0.00  0.00    +0.000 A 
ATOM     25  C   UNL     1      -4.788  50.173  47.056  0.00  0.00    +0.000 A 
BRANCH  17  26
ATOM     26  O   UNL     1      -6.890  53.705  49.837  0.00  0.00    +0.000 OA
ATOM     27  H   UNL     1      -7.373  53.796  50.636  0.00  0.00    +0.000 HD
ENDBRANCH  17  26
BRANCH  19  28
ATOM     28  C   UNL     1      -8.614  50.404  45.557  0.00  0.00    +0.000 C 
BRANCH  28  29
ATOM     29  C   UNL     1      -7.991  50.820  44.217  0.00  0.00    +0.000 C 
BRANCH  29  30
ATOM     30  C   UNL     1      -8.926  51.639  43.305  0.00  0.00    +0.000 C 
ATOM     31  C   UNL     1     -10.400  51.271  43.482  0.00  0.00    +0.000 C 
ATOM     32  C   UNL     1      -8.739  53.134  43.592  0.00  0.00    +0.000 C 
ENDBRANCH  29  30
ENDBRANCH  28  29
ENDBRANCH  19  28
ENDBRANCH   6  15
BRANCH  11  33
ATOM     33  N   UNL     1     -14.827  57.703  50.078  0.00  0.00    +0.000 N 
ATOM     34  H   UNL     1     -15.746  57.354  50.033  0.00  0.00    +0.000 HD
BRANCH  33  35
ATOM     35  S   UNL     1     -14.534  59.246  50.668  0.00  0.00    +0.000 S 
ATOM     36  O   UNL     1     -13.301  59.757  50.106  0.00  0.00    +0.000 OA
ATOM     37  O   UNL     1     -15.780  59.968  50.531  0.00  0.00    +0.000 OA
ATOM     38  C   UNL     1     -14.290  58.950  52.406  0.00  0.00    +0.000 C 
ENDBRANCH  33  35
ENDBRANCH  11  33
TORSDOF 7
ENDMDL
MODEL 6
REMARK VINA RESULT:      -6.7      3.003      4.650
REMARK  Name = 350570
REMARK  10 active torsions:
REMARK  status: ('A' for Active; 'I' for Inactive)
REMARK    1  A    between atoms: C_6  and  C_10
REMARK    2  A    between atoms: C_12  and  N_16
REMARK    3  A    between atoms: C_14  and  O_19
REMARK    4  A    between atoms: N_16  and  S_21
REMARK    5  A    between atoms: N_18  and  C_23
REMARK    6  A    between atoms: S_21  and  C_27
REMARK    7  A    between atoms: C_23  and  C_29
REMARK    8  A    between atoms: C_29  and  C_32
REMARK    9  A    between atoms: C_32  and  C_33
REMARK   10  A    between atoms: C_32  and  C_34
REMARK                            x       y       z     vdW  Elec       q    Type
REMARK                         _______ _______ _______ _____ _____    ______ ____
ROOT
ATOM      1  S   UNL     1     -11.541  52.562  50.129  0.00  0.00    +0.000 S 
ATOM      2  O   UNL     1     -11.937  52.356  51.508  0.00  0.00    +0.000 OA
ATOM      3  O   UNL     1     -12.237  51.876  49.057  0.00  0.00    +0.000 OA
ATOM      4  N   UNL     1      -9.966  52.224  50.005  0.00  0.00    +0.000 N 
ATOM      5  C   UNL     1     -11.759  54.271  49.814  0.00  0.00    +0.000 A 
ATOM      6  C   UNL     1      -9.084  53.165  49.828  0.00  0.00    +0.000 C 
ATOM      7  C   UNL     1     -10.624  55.053  49.661  0.00  0.00    +0.000 A 
ATOM      8  C   UNL     1     -13.050  54.798  49.736  0.00  0.00    +0.000 A 
ATOM      9  N   UNL     1      -9.348  54.512  49.770  0.00  0.00    +0.000 N 
ATOM     10  C   UNL     1     -10.788  56.428  49.479  0.00  0.00    +0.000 A 
ATOM     11  C   UNL     1     -13.191  56.165  49.551  0.00  0.00    +0.000 A 
ATOM     12  C   UNL     1     -12.068  56.982  49.422  0.00  0.00    +0.000 A 
ATOM     13  H   UNL     1      -9.667  51.288  50.065  0.00  0.00    +0.000 HD
ATOM     14  H   UNL     1      -8.586  55.133  49.808  0.00  0.00    +0.000 HD
ENDROOT
BRANCH   6  15
ATOM     15  C   UNL     1      -7.656  52.709  49.638  0.00  0.00    +0.000 A 
ATOM     16  C   UNL     1      -6.577  53.281  50.504  0.00  0.00    +0.000 A 
ATOM     17  C   UNL     1      -7.350  51.785  48.709  0.00  0.00    +0.000 A 
ATOM     18  O   UNL     1      -6.903  54.040  51.425  0.00  0.00    +0.000 OA
ATOM     19  N   UNL     1      -5.270  52.934  50.242  0.00  0.00    +0.000 N 
ATOM     20  C   UNL     1      -5.953  51.419  48.473  0.00  0.00    +0.000 A 
ATOM     21  C   UNL     1      -4.931  52.017  49.214  0.00  0.00    +0.000 A 
ATOM     22  C   UNL     1      -5.595  50.509  47.471  0.00  0.00    +0.000 A 
ATOM     23  N   UNL     1      -3.621  51.755  48.992  0.00  0.00    +0.000 NA
ATOM     24  C   UNL     1      -4.255  50.238  47.229  0.00  0.00    +0.000 A 
ATOM     25  C   UNL     1      -3.314  50.882  48.008  0.00  0.00    +0.000 A 
BRANCH  17  26
ATOM     26  O   UNL     1      -8.269  51.147  47.894  0.00  0.00    +0.000 OA
ATOM     27  H   UNL     1      -8.043  50.938  47.008  0.00  0.00    +0.000 HD
ENDBRANCH  17  26
BRANCH  19  28
ATOM     28  C   UNL     1      -4.187  53.553  51.015  0.00  0.00    +0.000 C 
BRANCH  28  29
ATOM     29  C   UNL     1      -3.731  52.658  52.176  0.00  0.00    +0.000 C 
BRANCH  29  30
ATOM     30  C   UNL     1      -4.071  53.206  53.576  0.00  0.00    +0.000 C 
ATOM     31  C   UNL     1      -4.170  54.732  53.609  0.00  0.00    +0.000 C 
ATOM     32  C   UNL     1      -5.397  52.602  54.053  0.00  0.00    +0.000 C 
ENDBRANCH  29  30
ENDBRANCH  28  29
ENDBRANCH  19  28
ENDBRANCH   6  15
BRANCH  11  33
ATOM     33  N   UNL     1     -14.468  56.765  49.545  0.00  0.00    +0.000 N 
ATOM     34  H   UNL     1     -14.913  56.980  48.694  0.00  0.00    +0.000 HD
BRANCH  33  35
ATOM     35  S   UNL     1     -15.218  57.109  51.006  0.00  0.00    +0.000 S 
ATOM     36  O   UNL     1     -16.576  56.607  50.987  0.00  0.00    +0.000 OA
ATOM     37  O   UNL     1     -14.283  56.712  52.036  0.00  0.00    +0.000 OA
ATOM     38  C   UNL     1     -15.266  58.888  51.001  0.00  0.00    +0.000 C 
ENDBRANCH  33  35
ENDBRANCH  11  33
TORSDOF 7
ENDMDL
MODEL 7
REMARK VINA RESULT:      -6.3      4.509      6.488
REMARK  Name = 350570
REMARK  10 active torsions:
REMARK  status: ('A' for Active; 'I' for Inactive)
REMARK    1  A    between atoms: C_6  and  C_10
REMARK    2  A    between atoms: C_12  and  N_16
REMARK    3  A    between atoms: C_14  and  O_19
REMARK    4  A    between atoms: N_16  and  S_21
REMARK    5  A    between atoms: N_18  and  C_23
REMARK    6  A    between atoms: S_21  and  C_27
REMARK    7  A    between atoms: C_23  and  C_29
REMARK    8  A    between atoms: C_29  and  C_32
REMARK    9  A    between atoms: C_32  and  C_33
REMARK   10  A    between atoms: C_32  and  C_34
REMARK                            x       y       z     vdW  Elec       q    Type
REMARK                         _______ _______ _______ _____ _____    ______ ____
ROOT
ATOM      1  S   UNL     1     -10.759  53.394  51.305  0.00  0.00    +0.000 S 
ATOM      2  O   UNL     1      -9.645  53.754  52.160  0.00  0.00    +0.000 OA
ATOM      3  O   UNL     1     -11.766  52.460  51.769  0.00  0.00    +0.000 OA
ATOM      4  N   UNL     1     -10.160  52.839  49.911  0.00  0.00    +0.000 N 
ATOM      5  C   UNL     1     -11.616  54.886  50.975  0.00  0.00    +0.000 A 
ATOM      6  C   UNL     1     -10.248  53.532  48.813  0.00  0.00    +0.000 C 
ATOM      7  C   UNL     1     -11.539  55.409  49.693  0.00  0.00    +0.000 A 
ATOM      8  C   UNL     1     -12.337  55.506  51.997  0.00  0.00    +0.000 A 
ATOM      9  N   UNL     1     -10.793  54.788  48.698  0.00  0.00    +0.000 N 
ATOM     10  C   UNL     1     -12.162  56.633  49.441  0.00  0.00    +0.000 A 
ATOM     11  C   UNL     1     -12.951  56.719  51.725  0.00  0.00    +0.000 A 
ATOM     12  C   UNL     1     -12.867  57.285  50.452  0.00  0.00    +0.000 A 
ATOM     13  H   UNL     1      -9.719  51.958  49.891  0.00  0.00    +0.000 HD
ATOM     14  H   UNL     1     -10.646  55.280  47.858  0.00  0.00    +0.000 HD
ENDROOT
BRANCH   6  15
ATOM     15  C   UNL     1      -9.729  52.862  47.561  0.00  0.00    +0.000 A 
ATOM     16  C   UNL     1      -8.537  51.961  47.647  0.00  0.00    +0.000 A 
ATOM     17  C   UNL     1     -10.337  53.059  46.378  0.00  0.00    +0.000 A 
ATOM     18  O   UNL     1      -8.069  51.709  48.764  0.00  0.00    +0.000 OA
ATOM     19  N   UNL     1      -8.015  51.448  46.480  0.00  0.00    +0.000 N 
ATOM     20  C   UNL     1      -9.773  52.477  45.159  0.00  0.00    +0.000 A 
ATOM     21  C   UNL     1      -8.606  51.711  45.217  0.00  0.00    +0.000 A 
ATOM     22  C   UNL     1     -10.344  52.713  43.903  0.00  0.00    +0.000 A 
ATOM     23  N   UNL     1      -8.013  51.202  44.111  0.00  0.00    +0.000 NA
ATOM     24  C   UNL     1      -9.741  52.204  42.761  0.00  0.00    +0.000 A 
ATOM     25  C   UNL     1      -8.587  51.463  42.916  0.00  0.00    +0.000 A 
BRANCH  17  26
ATOM     26  O   UNL     1     -11.477  53.821  46.190  0.00  0.00    +0.000 OA
ATOM     27  H   UNL     1     -11.482  54.505  45.548  0.00  0.00    +0.000 HD
ENDBRANCH  17  26
BRANCH  19  28
ATOM     28  C   UNL     1      -6.792  50.639  46.527  0.00  0.00    +0.000 C 
BRANCH  28  29
ATOM     29  C   UNL     1      -5.572  51.473  46.943  0.00  0.00    +0.000 C 
BRANCH  29  30
ATOM     30  C   UNL     1      -4.750  50.869  48.098  0.00  0.00    +0.000 C 
ATOM     31  C   UNL     1      -3.521  50.098  47.613  0.00  0.00    +0.000 C 
ATOM     32  C   UNL     1      -4.303  51.987  49.047  0.00  0.00    +0.000 C 
ENDBRANCH  29  30
ENDBRANCH  28  29
ENDBRANCH  19  28
ENDBRANCH   6  15
BRANCH  11  33
ATOM     33  N   UNL     1     -13.625  57.431  52.739  0.00  0.00    +0.000 N 
ATOM     34  H   UNL     1     -13.151  57.701  53.559  0.00  0.00    +0.000 HD
BRANCH  33  35
ATOM     35  S   UNL     1     -15.246  57.812  52.532  0.00  0.00    +0.000 S 
ATOM     36  O   UNL     1     -15.902  56.760  51.786  0.00  0.00    +0.000 OA
ATOM     37  O   UNL     1     -15.727  58.226  53.833  0.00  0.00    +0.000 OA
ATOM     38  C   UNL     1     -15.169  59.271  51.516  0.00  0.00    +0.000 C 
ENDBRANCH  33  35
ENDBRANCH  11  33
TORSDOF 7
ENDMDL
MODEL 8
REMARK VINA RESULT:      -6.2      4.326      9.075
REMARK  Name = 350570
REMARK  10 active torsions:
REMARK  status: ('A' for Active; 'I' for Inactive)
REMARK    1  A    between atoms: C_6  and  C_10
REMARK    2  A    between atoms: C_12  and  N_16
REMARK    3  A    between atoms: C_14  and  O_19
REMARK    4  A    between atoms: N_16  and  S_21
REMARK    5  A    between atoms: N_18  and  C_23
REMARK    6  A    between atoms: S_21  and  C_27
REMARK    7  A    between atoms: C_23  and  C_29
REMARK    8  A    between atoms: C_29  and  C_32
REMARK    9  A    between atoms: C_32  and  C_33
REMARK   10  A    between atoms: C_32  and  C_34
REMARK                            x       y       z     vdW  Elec       q    Type
REMARK                         _______ _______ _______ _____ _____    ______ ____
ROOT
ATOM      1  S   UNL     1      -7.669  54.953  50.440  0.00  0.00    +0.000 S 
ATOM      2  O   UNL     1      -7.307  54.088  51.545  0.00  0.00    +0.000 OA
ATOM      3  O   UNL     1      -6.833  56.087  50.094  0.00  0.00    +0.000 OA
ATOM      4  N   UNL     1      -9.170  55.492  50.697  0.00  0.00    +0.000 N 
ATOM      5  C   UNL     1      -7.691  53.932  49.016  0.00  0.00    +0.000 A 
ATOM      6  C   UNL     1     -10.171  55.069  49.981  0.00  0.00    +0.000 C 
ATOM      7  C   UNL     1      -8.920  53.640  48.446  0.00  0.00    +0.000 A 
ATOM      8  C   UNL     1      -6.489  53.439  48.504  0.00  0.00    +0.000 A 
ATOM      9  N   UNL     1     -10.106  54.121  48.989  0.00  0.00    +0.000 N 
ATOM     10  C   UNL     1      -8.952  52.772  47.353  0.00  0.00    +0.000 A 
ATOM     11  C   UNL     1      -6.543  52.581  47.416  0.00  0.00    +0.000 A 
ATOM     12  C   UNL     1      -7.767  52.245  46.838  0.00  0.00    +0.000 A 
ATOM     13  H   UNL     1      -9.330  56.153  51.408  0.00  0.00    +0.000 HD
ATOM     14  H   UNL     1     -10.953  53.759  48.641  0.00  0.00    +0.000 HD
ENDROOT
BRANCH   6  15
ATOM     15  C   UNL     1     -11.508  55.718  50.262  0.00  0.00    +0.000 A 
ATOM     16  C   UNL     1     -12.376  56.143  49.119  0.00  0.00    +0.000 A 
ATOM     17  C   UNL     1     -11.926  55.902  51.527  0.00  0.00    +0.000 A 
ATOM     18  O   UNL     1     -12.017  55.857  47.970  0.00  0.00    +0.000 OA
ATOM     19  N   UNL     1     -13.537  56.829  49.395  0.00  0.00    +0.000 N 
ATOM     20  C   UNL     1     -13.180  56.613  51.787  0.00  0.00    +0.000 A 
ATOM     21  C   UNL     1     -13.951  57.095  50.726  0.00  0.00    +0.000 A 
ATOM     22  C   UNL     1     -13.614  56.877  53.091  0.00  0.00    +0.000 A 
ATOM     23  N   UNL     1     -15.086  57.809  50.917  0.00  0.00    +0.000 NA
ATOM     24  C   UNL     1     -14.772  57.614  53.299  0.00  0.00    +0.000 A 
ATOM     25  C   UNL     1     -15.465  58.055  52.190  0.00  0.00    +0.000 A 
BRANCH  17  26
ATOM     26  O   UNL     1     -11.237  55.498  52.656  0.00  0.00    +0.000 OA
ATOM     27  H   UNL     1     -10.304  55.412  52.629  0.00  0.00    +0.000 HD
ENDBRANCH  17  26
BRANCH  19  28
ATOM     28  C   UNL     1     -14.358  57.340  48.291  0.00  0.00    +0.000 C 
BRANCH  28  29
ATOM     29  C   UNL     1     -13.976  58.778  47.913  0.00  0.00    +0.000 C 
BRANCH  29  30
ATOM     30  C   UNL     1     -14.248  59.821  49.015  0.00  0.00    +0.000 C 
ATOM     31  C   UNL     1     -12.967  60.349  49.663  0.00  0.00    +0.000 C 
ATOM     32  C   UNL     1     -15.036  60.996  48.422  0.00  0.00    +0.000 C 
ENDBRANCH  29  30
ENDBRANCH  28  29
ENDBRANCH  19  28
ENDBRANCH   6  15
BRANCH  11  33
ATOM     33  N   UNL     1      -5.368  51.988  46.905  0.00  0.00    +0.000 N 
ATOM     34  H   UNL     1      -4.934  52.353  46.101  0.00  0.00    +0.000 HD
BRANCH  33  35
ATOM     35  S   UNL     1      -4.722  50.650  47.685  0.00  0.00    +0.000 S 
ATOM     36  O   UNL     1      -5.758  49.980  48.442  0.00  0.00    +0.000 OA
ATOM     37  O   UNL     1      -3.943  49.947  46.689  0.00  0.00    +0.000 OA
ATOM     38  C   UNL     1      -3.571  51.390  48.823  0.00  0.00    +0.000 C 
ENDBRANCH  33  35
ENDBRANCH  11  33
TORSDOF 7
ENDMDL
MODEL 9
REMARK VINA RESULT:      -6.2      3.249      9.542
REMARK  Name = 350570
REMARK  10 active torsions:
REMARK  status: ('A' for Active; 'I' for Inactive)
REMARK    1  A    between atoms: C_6  and  C_10
REMARK    2  A    between atoms: C_12  and  N_16
REMARK    3  A    between atoms: C_14  and  O_19
REMARK    4  A    between atoms: N_16  and  S_21
REMARK    5  A    between atoms: N_18  and  C_23
REMARK    6  A    between atoms: S_21  and  C_27
REMARK    7  A    between atoms: C_23  and  C_29
REMARK    8  A    between atoms: C_29  and  C_32
REMARK    9  A    between atoms: C_32  and  C_33
REMARK   10  A    between atoms: C_32  and  C_34
REMARK                            x       y       z     vdW  Elec       q    Type
REMARK                         _______ _______ _______ _____ _____    ______ ____
ROOT
ATOM      1  S   UNL     1      -9.098  51.541  50.777  0.00  0.00    +0.000 S 
ATOM      2  O   UNL     1      -8.208  51.172  49.694  0.00  0.00    +0.000 OA
ATOM      3  O   UNL     1      -9.944  50.542  51.401  0.00  0.00    +0.000 OA
ATOM      4  N   UNL     1     -10.038  52.750  50.263  0.00  0.00    +0.000 N 
ATOM      5  C   UNL     1      -8.071  52.153  52.058  0.00  0.00    +0.000 A 
ATOM      6  C   UNL     1      -9.881  53.963  50.706  0.00  0.00    +0.000 C 
ATOM      7  C   UNL     1      -8.107  53.514  52.324  0.00  0.00    +0.000 A 
ATOM      8  C   UNL     1      -7.247  51.272  52.762  0.00  0.00    +0.000 A 
ATOM      9  N   UNL     1      -8.915  54.376  51.592  0.00  0.00    +0.000 N 
ATOM     10  C   UNL     1      -7.242  54.020  53.295  0.00  0.00    +0.000 A 
ATOM     11  C   UNL     1      -6.398  51.795  53.725  0.00  0.00    +0.000 A 
ATOM     12  C   UNL     1      -6.391  53.164  53.995  0.00  0.00    +0.000 A 
ATOM     13  H   UNL     1     -10.743  52.565  49.602  0.00  0.00    +0.000 HD
ATOM     14  H   UNL     1      -8.787  55.345  51.716  0.00  0.00    +0.000 HD
ENDROOT
BRANCH   6  15
ATOM     15  C   UNL     1     -10.882  54.984  50.214  0.00  0.00    +0.000 A 
ATOM     16  C   UNL     1     -11.652  55.800  51.206  0.00  0.00    +0.000 A 
ATOM     17  C   UNL     1     -11.075  55.173  48.897  0.00  0.00    +0.000 A 
ATOM     18  O   UNL     1     -11.371  55.685  52.406  0.00  0.00    +0.000 OA
ATOM     19  N   UNL     1     -12.635  56.644  50.741  0.00  0.00    +0.000 N 
ATOM     20  C   UNL     1     -12.111  56.099  48.434  0.00  0.00    +0.000 A 
ATOM     21  C   UNL     1     -12.898  56.795  49.355  0.00  0.00    +0.000 A 
ATOM     22  C   UNL     1     -12.380  56.272  47.072  0.00  0.00    +0.000 A 
ATOM     23  N   UNL     1     -13.906  57.616  48.976  0.00  0.00    +0.000 NA
ATOM     24  C   UNL     1     -13.417  57.105  46.671  0.00  0.00    +0.000 A 
ATOM     25  C   UNL     1     -14.145  57.747  47.653  0.00  0.00    +0.000 A 
BRANCH  17  26
ATOM     26  O   UNL     1     -10.381  54.521  47.893  0.00  0.00    +0.000 OA
ATOM     27  H   UNL     1     -10.234  54.948  47.072  0.00  0.00    +0.000 HD
ENDBRANCH  17  26
BRANCH  19  28
ATOM     28  C   UNL     1     -13.468  57.384  51.696  0.00  0.00    +0.000 C 
BRANCH  28  29
ATOM     29  C   UNL     1     -14.665  56.550  52.174  0.00  0.00    +0.000 C 
BRANCH  29  30
ATOM     30  C   UNL     1     -16.040  57.112  51.762  0.00  0.00    +0.000 C 
ATOM     31  C   UNL     1     -15.969  58.561  51.279  0.00  0.00    +0.000 C 
ATOM     32  C   UNL     1     -16.637  56.237  50.652  0.00  0.00    +0.000 C 
ENDBRANCH  29  30
ENDBRANCH  28  29
ENDBRANCH  19  28
ENDBRANCH   6  15
BRANCH  11  33
ATOM     33  N   UNL     1      -5.486  50.965  54.411  0.00  0.00    +0.000 N 
ATOM     34  H   UNL     1      -5.763  50.488  55.226  0.00  0.00    +0.000 HD
BRANCH  33  35
ATOM     35  S   UNL     1      -3.923  50.804  53.822  0.00  0.00    +0.000 S 
ATOM     36  O   UNL     1      -3.320  52.112  53.678  0.00  0.00    +0.000 OA
ATOM     37  O   UNL     1      -3.302  49.772  54.623  0.00  0.00    +0.000 OA
ATOM     38  C   UNL     1      -4.194  50.118  52.203  0.00  0.00    +0.000 C 
ENDBRANCH  33  35
ENDBRANCH  11  33
TORSDOF 7
ENDMDL
