MODEL 1
REMARK VINA RESULT:      -8.0      0.000      0.000
REMARK  Name = 352901
REMARK  8 active torsions:
REMARK  status: ('A' for Active; 'I' for Inactive)
REMARK    1  A    between atoms: C_6  and  C_10
REMARK    2  A    between atoms: C_12  and  O_16
REMARK    3  A    between atoms: C_14  and  O_19
REMARK    4  A    between atoms: N_18  and  C_22
REMARK    5  A    between atoms: C_22  and  C_25
REMARK    6  A    between atoms: C_25  and  C_28
REMARK    7  A    between atoms: C_28  and  C_29
REMARK    8  A    between atoms: C_28  and  C_30
REMARK                            x       y       z     vdW  Elec       q    Type
REMARK                         _______ _______ _______ _____ _____    ______ ____
ROOT
ATOM      1  C   UNL     1     -12.196  55.842  50.777  0.00  0.00    +0.000 A 
ATOM      2  C   UNL     1     -11.531  56.732  49.779  0.00  0.00    +0.000 A 
ATOM      3  C   UNL     1     -13.400  56.258  51.218  0.00  0.00    +0.000 A 
ATOM      4  O   UNL     1     -10.309  56.813  49.714  0.00  0.00    +0.000 OA
ATOM      5  N   UNL     1     -12.437  57.231  48.815  0.00  0.00    +0.000 N 
ATOM      6  C   UNL     1     -13.914  57.536  50.730  0.00  0.00    +0.000 A 
ATOM      7  C   UNL     1     -13.494  57.973  49.459  0.00  0.00    +0.000 A 
ATOM      8  C   UNL     1     -14.767  58.335  51.485  0.00  0.00    +0.000 A 
ATOM      9  N   UNL     1     -13.876  59.158  48.940  0.00  0.00    +0.000 NA
ATOM     10  C   UNL     1     -15.120  59.581  50.992  0.00  0.00    +0.000 A 
ATOM     11  C   UNL     1     -14.656  59.941  49.732  0.00  0.00    +0.000 A 
ENDROOT
BRANCH   1  17
ATOM     12  S   UNL     1     -10.984  52.280  49.905  0.00  0.00    +0.000 S 
ATOM     13  O   UNL     1     -12.027  51.337  49.584  0.00  0.00    +0.000 OA
ATOM     14  O   UNL     1      -9.785  52.348  49.089  0.00  0.00    +0.000 OA
ATOM     15  N   UNL     1     -11.636  53.743  49.940  0.00  0.00    +0.000 N 
ATOM     16  C   UNL     1     -10.446  51.902  51.520  0.00  0.00    +0.000 A 
ATOM     17  C   UNL     1     -11.678  54.459  51.023  0.00  0.00    +0.000 C 
ATOM     18  C   UNL     1     -10.623  52.843  52.530  0.00  0.00    +0.000 A 
ATOM     19  C   UNL     1      -9.848  50.657  51.718  0.00  0.00    +0.000 A 
ATOM     20  N   UNL     1     -11.230  54.076  52.271  0.00  0.00    +0.000 N 
ATOM     21  C   UNL     1     -10.176  52.491  53.806  0.00  0.00    +0.000 A 
ATOM     22  C   UNL     1      -9.412  50.338  52.986  0.00  0.00    +0.000 A 
ATOM     23  C   UNL     1      -9.571  51.243  54.032  0.00  0.00    +0.000 A 
ATOM     24  H   UNL     1     -12.018  54.112  49.111  0.00  0.00    +0.000 HD
ATOM     25  H   UNL     1     -11.343  54.705  53.020  0.00  0.00    +0.000 HD
BRANCH  22  26
ATOM     26  O   UNL     1      -8.823  49.138  53.236  0.00  0.00    +0.000 OA
ATOM     27  H   UNL     1      -7.896  49.087  53.361  0.00  0.00    +0.000 HD
ENDBRANCH  22  26
ENDBRANCH   1  17
BRANCH   3  28
ATOM     28  O   UNL     1     -14.274  55.539  52.002  0.00  0.00    +0.000 OA
ATOM     29  H   UNL     1     -14.816  55.981  52.626  0.00  0.00    +0.000 HD
ENDBRANCH   3  28
BRANCH   5  30
ATOM     30  C   UNL     1     -12.921  56.109  47.977  0.00  0.00    +0.000 C 
BRANCH  30  31
ATOM     31  C   UNL     1     -12.252  55.889  46.629  0.00  0.00    +0.000 C 
BRANCH  31  32
ATOM     32  C   UNL     1     -11.320  54.669  46.559  0.00  0.00    +0.000 C 
ATOM     33  C   UNL     1     -11.465  53.872  45.258  0.00  0.00    +0.000 C 
ATOM     34  C   UNL     1      -9.871  55.135  46.713  0.00  0.00    +0.000 C 
ENDBRANCH  31  32
ENDBRANCH  30  31
ENDBRANCH   5  30
TORSDOF 6
ENDMDL
MODEL 2
REMARK VINA RESULT:      -8.0      2.532      3.289
REMARK  Name = 352901
REMARK  8 active torsions:
REMARK  status: ('A' for Active; 'I' for Inactive)
REMARK    1  A    between atoms: C_6  and  C_10
REMARK    2  A    between atoms: C_12  and  O_16
REMARK    3  A    between atoms: C_14  and  O_19
REMARK    4  A    between atoms: N_18  and  C_22
REMARK    5  A    between atoms: C_22  and  C_25
REMARK    6  A    between atoms: C_25  and  C_28
REMARK    7  A    between atoms: C_28  and  C_29
REMARK    8  A    between atoms: C_28  and  C_30
REMARK                            x       y       z     vdW  Elec       q    Type
REMARK                         _______ _______ _______ _____ _____    ______ ____
ROOT
ATOM      1  C   UNL     1     -10.307  55.571  50.607  0.00  0.00    +0.000 A 
ATOM      2  C   UNL     1      -9.955  55.821  49.176  0.00  0.00    +0.000 A 
ATOM      3  C   UNL     1     -11.591  55.806  50.941  0.00  0.00    +0.000 A 
ATOM      4  O   UNL     1      -8.831  56.190  48.853  0.00  0.00    +0.000 OA
ATOM      5  N   UNL     1     -10.950  55.353  48.289  0.00  0.00    +0.000 N 
ATOM      6  C   UNL     1     -12.493  56.317  49.911  0.00  0.00    +0.000 A 
ATOM      7  C   UNL     1     -12.213  55.995  48.569  0.00  0.00    +0.000 A 
ATOM      8  C   UNL     1     -13.586  57.125  50.210  0.00  0.00    +0.000 A 
ATOM      9  N   UNL     1     -12.959  56.454  47.544  0.00  0.00    +0.000 NA
ATOM     10  C   UNL     1     -14.326  57.655  49.165  0.00  0.00    +0.000 A 
ATOM     11  C   UNL     1     -13.978  57.294  47.868  0.00  0.00    +0.000 A 
ENDROOT
BRANCH   1  17
ATOM     12  S   UNL     1      -7.141  54.997  52.744  0.00  0.00    +0.000 S 
ATOM     13  O   UNL     1      -5.941  54.704  51.999  0.00  0.00    +0.000 OA
ATOM     14  O   UNL     1      -7.104  55.945  53.843  0.00  0.00    +0.000 OA
ATOM     15  N   UNL     1      -8.256  55.495  51.706  0.00  0.00    +0.000 N 
ATOM     16  C   UNL     1      -7.689  53.489  53.426  0.00  0.00    +0.000 A 
ATOM     17  C   UNL     1      -9.358  54.837  51.504  0.00  0.00    +0.000 C 
ATOM     18  C   UNL     1      -8.918  52.973  53.028  0.00  0.00    +0.000 A 
ATOM     19  C   UNL     1      -6.855  52.871  54.358  0.00  0.00    +0.000 A 
ATOM     20  N   UNL     1      -9.712  53.638  52.088  0.00  0.00    +0.000 N 
ATOM     21  C   UNL     1      -9.311  51.762  53.604  0.00  0.00    +0.000 A 
ATOM     22  C   UNL     1      -7.269  51.680  54.914  0.00  0.00    +0.000 A 
ATOM     23  C   UNL     1      -8.488  51.119  54.545  0.00  0.00    +0.000 A 
ATOM     24  H   UNL     1      -8.100  56.328  51.205  0.00  0.00    +0.000 HD
ATOM     25  H   UNL     1     -10.568  53.228  51.829  0.00  0.00    +0.000 HD
BRANCH  22  26
ATOM     26  O   UNL     1      -6.495  51.034  55.827  0.00  0.00    +0.000 OA
ATOM     27  H   UNL     1      -6.871  50.377  56.379  0.00  0.00    +0.000 HD
ENDBRANCH  22  26
ENDBRANCH   1  17
BRANCH   3  28
ATOM     28  O   UNL     1     -12.192  55.494  52.140  0.00  0.00    +0.000 OA
ATOM     29  H   UNL     1     -13.056  55.132  52.150  0.00  0.00    +0.000 HD
ENDBRANCH   3  28
BRANCH   5  30
ATOM     30  C   UNL     1     -11.004  53.874  48.356  0.00  0.00    +0.000 C 
BRANCH  30  31
ATOM     31  C   UNL     1     -10.651  53.092  47.101  0.00  0.00    +0.000 C 
BRANCH  31  32
ATOM     32  C   UNL     1     -10.436  53.948  45.843  0.00  0.00    +0.000 C 
ATOM     33  C   UNL     1      -8.961  54.084  45.449  0.00  0.00    +0.000 C 
ATOM     34  C   UNL     1     -11.220  53.336  44.680  0.00  0.00    +0.000 C 
ENDBRANCH  31  32
ENDBRANCH  30  31
ENDBRANCH   5  30
TORSDOF 6
ENDMDL
MODEL 3
REMARK VINA RESULT:      -8.0      2.482      5.352
REMARK  Name = 352901
REMARK  8 active torsions:
REMARK  status: ('A' for Active; 'I' for Inactive)
REMARK    1  A    between atoms: C_6  and  C_10
REMARK    2  A    between atoms: C_12  and  O_16
REMARK    3  A    between atoms: C_14  and  O_19
REMARK    4  A    between atoms: N_18  and  C_22
REMARK    5  A    between atoms: C_22  and  C_25
REMARK    6  A    between atoms: C_25  and  C_28
REMARK    7  A    between atoms: C_28  and  C_29
REMARK    8  A    between atoms: C_28  and  C_30
REMARK                            x       y       z     vdW  Elec       q    Type
REMARK                         _______ _______ _______ _____ _____    ______ ____
ROOT
ATOM      1  C   UNL     1     -12.551  54.572  49.538  0.00  0.00    +0.000 A 
ATOM      2  C   UNL     1     -12.358  54.225  50.978  0.00  0.00    +0.000 A 
ATOM      3  C   UNL     1     -13.210  55.723  49.299  0.00  0.00    +0.000 A 
ATOM      4  O   UNL     1     -12.308  53.057  51.350  0.00  0.00    +0.000 OA
ATOM      5  N   UNL     1     -12.002  55.348  51.758  0.00  0.00    +0.000 N 
ATOM      6  C   UNL     1     -13.707  56.487  50.441  0.00  0.00    +0.000 A 
ATOM      7  C   UNL     1     -13.021  56.366  51.665  0.00  0.00    +0.000 A 
ATOM      8  C   UNL     1     -14.837  57.295  50.363  0.00  0.00    +0.000 A 
ATOM      9  N   UNL     1     -13.427  56.995  52.786  0.00  0.00    +0.000 NA
ATOM     10  C   UNL     1     -15.303  57.899  51.520  0.00  0.00    +0.000 A 
ATOM     11  C   UNL     1     -14.572  57.722  52.690  0.00  0.00    +0.000 A 
ENDROOT
BRANCH   1  17
ATOM     12  S   UNL     1     -11.730  51.683  47.110  0.00  0.00    +0.000 S 
ATOM     13  O   UNL     1     -11.093  50.536  47.711  0.00  0.00    +0.000 OA
ATOM     14  O   UNL     1     -12.818  51.501  46.166  0.00  0.00    +0.000 OA
ATOM     15  N   UNL     1     -12.258  52.628  48.290  0.00  0.00    +0.000 N 
ATOM     16  C   UNL     1     -10.487  52.553  46.251  0.00  0.00    +0.000 A 
ATOM     17  C   UNL     1     -11.803  53.831  48.473  0.00  0.00    +0.000 C 
ATOM     18  C   UNL     1     -10.161  53.843  46.657  0.00  0.00    +0.000 A 
ATOM     19  C   UNL     1      -9.879  51.903  45.177  0.00  0.00    +0.000 A 
ATOM     20  N   UNL     1     -10.806  54.445  47.742  0.00  0.00    +0.000 N 
ATOM     21  C   UNL     1      -9.159  54.498  45.936  0.00  0.00    +0.000 A 
ATOM     22  C   UNL     1      -8.897  52.574  44.481  0.00  0.00    +0.000 A 
ATOM     23  C   UNL     1      -8.530  53.864  44.851  0.00  0.00    +0.000 A 
ATOM     24  H   UNL     1     -12.953  52.285  48.899  0.00  0.00    +0.000 HD
ATOM     25  H   UNL     1     -10.533  55.355  47.999  0.00  0.00    +0.000 HD
BRANCH  22  26
ATOM     26  O   UNL     1      -8.270  51.987  43.425  0.00  0.00    +0.000 OA
ATOM     27  H   UNL     1      -7.451  52.322  43.121  0.00  0.00    +0.000 HD
ENDBRANCH  22  26
ENDBRANCH   1  17
BRANCH   3  28
ATOM     28  O   UNL     1     -13.364  56.335  48.076  0.00  0.00    +0.000 OA
ATOM     29  H   UNL     1     -12.616  56.490  47.532  0.00  0.00    +0.000 HD
ENDBRANCH   3  28
BRANCH   5  30
ATOM     30  C   UNL     1     -10.655  55.814  51.353  0.00  0.00    +0.000 C 
BRANCH  30  31
ATOM     31  C   UNL     1      -9.452  55.021  51.841  0.00  0.00    +0.000 C 
BRANCH  31  32
ATOM     32  C   UNL     1      -9.448  54.710  53.346  0.00  0.00    +0.000 C 
ATOM     33  C   UNL     1      -9.597  53.217  53.655  0.00  0.00    +0.000 C 
ATOM     34  C   UNL     1      -8.148  55.230  53.962  0.00  0.00    +0.000 C 
ENDBRANCH  31  32
ENDBRANCH  30  31
ENDBRANCH   5  30
TORSDOF 6
ENDMDL
MODEL 4
REMARK VINA RESULT:      -7.7      4.032      7.501
REMARK  Name = 352901
REMARK  8 active torsions:
REMARK  status: ('A' for Active; 'I' for Inactive)
REMARK    1  A    between atoms: C_6  and  C_10
REMARK    2  A    between atoms: C_12  and  O_16
REMARK    3  A    between atoms: C_14  and  O_19
REMARK    4  A    between atoms: N_18  and  C_22
REMARK    5  A    between atoms: C_22  and  C_25
REMARK    6  A    between atoms: C_25  and  C_28
REMARK    7  A    between atoms: C_28  and  C_29
REMARK    8  A    between atoms: C_28  and  C_30
REMARK                            x       y       z     vdW  Elec       q    Type
REMARK                         _______ _______ _______ _____ _____    ______ ____
ROOT
ATOM      1  C   UNL     1      -6.888  55.024  50.108  0.00  0.00    +0.000 A 
ATOM      2  C   UNL     1      -7.396  56.061  51.056  0.00  0.00    +0.000 A 
ATOM      3  C   UNL     1      -5.916  54.223  50.586  0.00  0.00    +0.000 A 
ATOM      4  O   UNL     1      -7.815  57.141  50.654  0.00  0.00    +0.000 OA
ATOM      5  N   UNL     1      -7.558  55.557  52.366  0.00  0.00    +0.000 N 
ATOM      6  C   UNL     1      -5.421  54.464  51.940  0.00  0.00    +0.000 A 
ATOM      7  C   UNL     1      -6.302  55.052  52.868  0.00  0.00    +0.000 A 
ATOM      8  C   UNL     1      -4.119  54.161  52.323  0.00  0.00    +0.000 A 
ATOM      9  N   UNL     1      -5.927  55.354  54.127  0.00  0.00    +0.000 NA
ATOM     10  C   UNL     1      -3.701  54.521  53.595  0.00  0.00    +0.000 A 
ATOM     11  C   UNL     1      -4.629  55.106  54.448  0.00  0.00    +0.000 A 
ENDROOT
BRANCH   1  17
ATOM     12  S   UNL     1      -7.393  53.822  46.472  0.00  0.00    +0.000 S 
ATOM     13  O   UNL     1      -6.929  54.732  45.454  0.00  0.00    +0.000 OA
ATOM     14  O   UNL     1      -7.100  52.404  46.372  0.00  0.00    +0.000 OA
ATOM     15  N   UNL     1      -6.838  54.338  47.884  0.00  0.00    +0.000 N 
ATOM     16  C   UNL     1      -9.131  53.954  46.507  0.00  0.00    +0.000 A 
ATOM     17  C   UNL     1      -7.626  54.732  48.838  0.00  0.00    +0.000 C 
ATOM     18  C   UNL     1      -9.750  54.431  47.659  0.00  0.00    +0.000 A 
ATOM     19  C   UNL     1      -9.824  53.561  45.362  0.00  0.00    +0.000 A 
ATOM     20  N   UNL     1      -9.003  54.810  48.778  0.00  0.00    +0.000 N 
ATOM     21  C   UNL     1     -11.145  54.518  47.636  0.00  0.00    +0.000 A 
ATOM     22  C   UNL     1     -11.199  53.653  45.369  0.00  0.00    +0.000 A 
ATOM     23  C   UNL     1     -11.866  54.128  46.494  0.00  0.00    +0.000 A 
ATOM     24  H   UNL     1      -5.865  54.356  48.033  0.00  0.00    +0.000 HD
ATOM     25  H   UNL     1      -9.485  55.152  49.565  0.00  0.00    +0.000 HD
BRANCH  22  26
ATOM     26  O   UNL     1     -11.925  53.284  44.279  0.00  0.00    +0.000 OA
ATOM     27  H   UNL     1     -11.876  53.787  43.491  0.00  0.00    +0.000 HD
ENDBRANCH  22  26
ENDBRANCH   1  17
BRANCH   3  28
ATOM     28  O   UNL     1      -5.409  53.100  49.971  0.00  0.00    +0.000 OA
ATOM     29  H   UNL     1      -5.130  52.370  50.487  0.00  0.00    +0.000 HD
ENDBRANCH   3  28
BRANCH   5  30
ATOM     30  C   UNL     1      -8.648  54.554  52.369  0.00  0.00    +0.000 C 
BRANCH  30  31
ATOM     31  C   UNL     1     -10.035  55.013  52.789  0.00  0.00    +0.000 C 
BRANCH  31  32
ATOM     32  C   UNL     1     -11.085  55.015  51.667  0.00  0.00    +0.000 C 
ATOM     33  C   UNL     1     -11.560  53.610  51.281  0.00  0.00    +0.000 C 
ATOM     34  C   UNL     1     -12.285  55.857  52.104  0.00  0.00    +0.000 C 
ENDBRANCH  31  32
ENDBRANCH  30  31
ENDBRANCH   5  30
TORSDOF 6
ENDMDL
MODEL 5
REMARK VINA RESULT:      -7.7      2.880      5.568
REMARK  Name = 352901
REMARK  8 active torsions:
REMARK  status: ('A' for Active; 'I' for Inactive)
REMARK    1  A    between atoms: C_6  and  C_10
REMARK    2  A    between atoms: C_12  and  O_16
REMARK    3  A    between atoms: C_14  and  O_19
REMARK    4  A    between atoms: N_18  and  C_22
REMARK    5  A    between atoms: C_22  and  C_25
REMARK    6  A    between atoms: C_25  and  C_28
REMARK    7  A    between atoms: C_28  and  C_29
REMARK    8  A    between atoms: C_28  and  C_30
REMARK                            x       y       z     vdW  Elec       q    Type
REMARK                         _______ _______ _______ _____ _____    ______ ____
ROOT
ATOM      1  C   UNL     1     -12.102  54.612  48.813  0.00  0.00    +0.000 A 
ATOM      2  C   UNL     1     -12.050  54.066  50.203  0.00  0.00    +0.000 A 
ATOM      3  C   UNL     1     -12.910  55.675  48.633  0.00  0.00    +0.000 A 
ATOM      4  O   UNL     1     -11.852  52.874  50.412  0.00  0.00    +0.000 OA
ATOM      5  N   UNL     1     -12.003  55.087  51.179  0.00  0.00    +0.000 N 
ATOM      6  C   UNL     1     -13.683  56.160  49.775  0.00  0.00    +0.000 A 
ATOM      7  C   UNL     1     -13.160  55.943  51.065  0.00  0.00    +0.000 A 
ATOM      8  C   UNL     1     -14.914  56.791  49.629  0.00  0.00    +0.000 A 
ATOM      9  N   UNL     1     -13.818  56.313  52.182  0.00  0.00    +0.000 NA
ATOM     10  C   UNL     1     -15.630  57.122  50.769  0.00  0.00    +0.000 A 
ATOM     11  C   UNL     1     -15.047  56.867  52.005  0.00  0.00    +0.000 A 
ENDROOT
BRANCH   1  17
ATOM     12  S   UNL     1      -8.677  53.478  47.433  0.00  0.00    +0.000 S 
ATOM     13  O   UNL     1      -7.701  54.528  47.273  0.00  0.00    +0.000 OA
ATOM     14  O   UNL     1      -8.294  52.211  48.030  0.00  0.00    +0.000 OA
ATOM     15  N   UNL     1      -9.901  54.069  48.281  0.00  0.00    +0.000 N 
ATOM     16  C   UNL     1      -9.272  53.099  45.839  0.00  0.00    +0.000 A 
ATOM     17  C   UNL     1     -11.099  54.175  47.790  0.00  0.00    +0.000 C 
ATOM     18  C   UNL     1     -10.614  53.324  45.546  0.00  0.00    +0.000 A 
ATOM     19  C   UNL     1      -8.358  52.574  44.925  0.00  0.00    +0.000 A 
ATOM     20  N   UNL     1     -11.484  53.853  46.504  0.00  0.00    +0.000 N 
ATOM     21  C   UNL     1     -11.041  53.004  44.255  0.00  0.00    +0.000 A 
ATOM     22  C   UNL     1      -8.807  52.263  43.660  0.00  0.00    +0.000 A 
ATOM     23  C   UNL     1     -10.139  52.474  43.316  0.00  0.00    +0.000 A 
ATOM     24  H   UNL     1      -9.740  54.362  49.208  0.00  0.00    +0.000 HD
ATOM     25  H   UNL     1     -12.422  54.005  46.247  0.00  0.00    +0.000 HD
BRANCH  22  26
ATOM     26  O   UNL     1      -7.959  51.749  42.729  0.00  0.00    +0.000 OA
ATOM     27  H   UNL     1      -8.248  51.066  42.158  0.00  0.00    +0.000 HD
ENDBRANCH  22  26
ENDBRANCH   1  17
BRANCH   3  28
ATOM     28  O   UNL     1     -12.998  56.450  47.499  0.00  0.00    +0.000 OA
ATOM     29  H   UNL     1     -13.648  57.122  47.440  0.00  0.00    +0.000 HD
ENDBRANCH   3  28
BRANCH   5  30
ATOM     30  C   UNL     1     -10.714  55.808  51.066  0.00  0.00    +0.000 C 
BRANCH  30  31
ATOM     31  C   UNL     1      -9.505  55.219  51.777  0.00  0.00    +0.000 C 
BRANCH  31  32
ATOM     32  C   UNL     1      -8.146  55.738  51.283  0.00  0.00    +0.000 C 
ATOM     33  C   UNL     1      -7.207  54.621  50.816  0.00  0.00    +0.000 C 
ATOM     34  C   UNL     1      -8.372  56.726  50.137  0.00  0.00    +0.000 C 
ENDBRANCH  31  32
ENDBRANCH  30  31
ENDBRANCH   5  30
TORSDOF 6
ENDMDL
MODEL 6
REMARK VINA RESULT:      -7.7      3.302      3.684
REMARK  Name = 352901
REMARK  8 active torsions:
REMARK  status: ('A' for Active; 'I' for Inactive)
REMARK    1  A    between atoms: C_6  and  C_10
REMARK    2  A    between atoms: C_12  and  O_16
REMARK    3  A    between atoms: C_14  and  O_19
REMARK    4  A    between atoms: N_18  and  C_22
REMARK    5  A    between atoms: C_22  and  C_25
REMARK    6  A    between atoms: C_25  and  C_28
REMARK    7  A    between atoms: C_28  and  C_29
REMARK    8  A    between atoms: C_28  and  C_30
REMARK                            x       y       z     vdW  Elec       q    Type
REMARK                         _______ _______ _______ _____ _____    ______ ____
ROOT
ATOM      1  C   UNL     1     -10.300  55.810  50.941  0.00  0.00    +0.000 A 
ATOM      2  C   UNL     1     -10.538  56.439  49.607  0.00  0.00    +0.000 A 
ATOM      3  C   UNL     1     -11.406  55.514  51.652  0.00  0.00    +0.000 A 
ATOM      4  O   UNL     1      -9.736  57.231  49.125  0.00  0.00    +0.000 OA
ATOM      5  N   UNL     1     -11.611  55.836  48.913  0.00  0.00    +0.000 N 
ATOM      6  C   UNL     1     -12.707  55.868  51.090  0.00  0.00    +0.000 A 
ATOM      7  C   UNL     1     -12.825  55.931  49.688  0.00  0.00    +0.000 A 
ATOM      8  C   UNL     1     -13.807  56.171  51.887  0.00  0.00    +0.000 A 
ATOM      9  N   UNL     1     -13.971  56.291  49.074  0.00  0.00    +0.000 NA
ATOM     10  C   UNL     1     -14.973  56.602  51.273  0.00  0.00    +0.000 A 
ATOM     11  C   UNL     1     -15.005  56.644  49.884  0.00  0.00    +0.000 A 
ENDROOT
BRANCH   1  17
ATOM     12  S   UNL     1      -6.721  54.475  50.365  0.00  0.00    +0.000 S 
ATOM     13  O   UNL     1      -6.638  53.091  49.968  0.00  0.00    +0.000 OA
ATOM     14  O   UNL     1      -5.919  55.478  49.688  0.00  0.00    +0.000 OA
ATOM     15  N   UNL     1      -8.256  54.926  50.264  0.00  0.00    +0.000 N 
ATOM     16  C   UNL     1      -6.261  54.543  52.045  0.00  0.00    +0.000 A 
ATOM     17  C   UNL     1      -8.942  55.293  51.304  0.00  0.00    +0.000 C 
ATOM     18  C   UNL     1      -7.197  54.958  52.987  0.00  0.00    +0.000 A 
ATOM     19  C   UNL     1      -4.952  54.179  52.363  0.00  0.00    +0.000 A 
ATOM     20  N   UNL     1      -8.496  55.312  52.609  0.00  0.00    +0.000 N 
ATOM     21  C   UNL     1      -6.778  54.995  54.320  0.00  0.00    +0.000 A 
ATOM     22  C   UNL     1      -4.565  54.229  53.685  0.00  0.00    +0.000 A 
ATOM     23  C   UNL     1      -5.465  54.633  54.666  0.00  0.00    +0.000 A 
ATOM     24  H   UNL     1      -8.694  54.924  49.381  0.00  0.00    +0.000 HD
ATOM     25  H   UNL     1      -9.126  55.589  53.313  0.00  0.00    +0.000 HD
BRANCH  22  26
ATOM     26  O   UNL     1      -3.301  53.884  54.051  0.00  0.00    +0.000 OA
ATOM     27  H   UNL     1      -2.570  54.378  53.736  0.00  0.00    +0.000 HD
ENDBRANCH  22  26
ENDBRANCH   1  17
BRANCH   3  28
ATOM     28  O   UNL     1     -11.454  54.786  52.820  0.00  0.00    +0.000 OA
ATOM     29  H   UNL     1     -11.637  55.216  53.632  0.00  0.00    +0.000 HD
ENDBRANCH   3  28
BRANCH   5  30
ATOM     30  C   UNL     1     -11.238  54.448  48.555  0.00  0.00    +0.000 C 
BRANCH  30  31
ATOM     31  C   UNL     1     -11.653  53.931  47.186  0.00  0.00    +0.000 C 
BRANCH  31  32
ATOM     32  C   UNL     1     -10.490  53.621  46.231  0.00  0.00    +0.000 C 
ATOM     33  C   UNL     1     -10.944  53.363  44.790  0.00  0.00    +0.000 C 
ATOM     34  C   UNL     1      -9.499  54.787  46.251  0.00  0.00    +0.000 C 
ENDBRANCH  31  32
ENDBRANCH  30  31
ENDBRANCH   5  30
TORSDOF 6
ENDMDL
MODEL 7
REMARK VINA RESULT:      -7.4      3.880      7.387
REMARK  Name = 352901
REMARK  8 active torsions:
REMARK  status: ('A' for Active; 'I' for Inactive)
REMARK    1  A    between atoms: C_6  and  C_10
REMARK    2  A    between atoms: C_12  and  O_16
REMARK    3  A    between atoms: C_14  and  O_19
REMARK    4  A    between atoms: N_18  and  C_22
REMARK    5  A    between atoms: C_22  and  C_25
REMARK    6  A    between atoms: C_25  and  C_28
REMARK    7  A    between atoms: C_28  and  C_29
REMARK    8  A    between atoms: C_28  and  C_30
REMARK                            x       y       z     vdW  Elec       q    Type
REMARK                         _______ _______ _______ _____ _____    ______ ____
ROOT
ATOM      1  C   UNL     1      -7.720  54.678  50.018  0.00  0.00    +0.000 A 
ATOM      2  C   UNL     1      -8.014  55.953  50.738  0.00  0.00    +0.000 A 
ATOM      3  C   UNL     1      -6.905  53.819  50.663  0.00  0.00    +0.000 A 
ATOM      4  O   UNL     1      -8.233  56.993  50.126  0.00  0.00    +0.000 OA
ATOM      5  N   UNL     1      -8.249  55.750  52.117  0.00  0.00    +0.000 N 
ATOM      6  C   UNL     1      -6.357  54.222  51.956  0.00  0.00    +0.000 A 
ATOM      7  C   UNL     1      -7.101  55.130  52.734  0.00  0.00    +0.000 A 
ATOM      8  C   UNL     1      -5.127  53.765  52.420  0.00  0.00    +0.000 A 
ATOM      9  N   UNL     1      -6.660  55.596  53.920  0.00  0.00    +0.000 NA
ATOM     10  C   UNL     1      -4.633  54.281  53.608  0.00  0.00    +0.000 A 
ATOM     11  C   UNL     1      -5.426  55.180  54.311  0.00  0.00    +0.000 A 
ENDROOT
BRANCH   1  17
ATOM     12  S   UNL     1     -10.774  54.521  47.659  0.00  0.00    +0.000 S 
ATOM     13  O   UNL     1     -11.829  53.629  48.077  0.00  0.00    +0.000 OA
ATOM     14  O   UNL     1     -11.093  55.849  47.169  0.00  0.00    +0.000 OA
ATOM     15  N   UNL     1      -9.752  54.683  48.882  0.00  0.00    +0.000 N 
ATOM     16  C   UNL     1      -9.925  53.720  46.363  0.00  0.00    +0.000 A 
ATOM     17  C   UNL     1      -8.517  54.286  48.812  0.00  0.00    +0.000 C 
ATOM     18  C   UNL     1      -8.589  53.375  46.541  0.00  0.00    +0.000 A 
ATOM     19  C   UNL     1     -10.640  53.470  45.191  0.00  0.00    +0.000 A 
ATOM     20  N   UNL     1      -7.924  53.652  47.740  0.00  0.00    +0.000 N 
ATOM     21  C   UNL     1      -7.954  52.735  45.473  0.00  0.00    +0.000 A 
ATOM     22  C   UNL     1      -9.988  52.842  44.153  0.00  0.00    +0.000 A 
ATOM     23  C   UNL     1      -8.652  52.471  44.283  0.00  0.00    +0.000 A 
ATOM     24  H   UNL     1     -10.072  55.097  49.716  0.00  0.00    +0.000 HD
ATOM     25  H   UNL     1      -6.982  53.378  47.823  0.00  0.00    +0.000 HD
BRANCH  22  26
ATOM     26  O   UNL     1     -10.637  52.572  42.987  0.00  0.00    +0.000 OA
ATOM     27  H   UNL     1     -11.545  52.346  42.998  0.00  0.00    +0.000 HD
ENDBRANCH  22  26
ENDBRANCH   1  17
BRANCH   3  28
ATOM     28  O   UNL     1      -6.624  52.525  50.288  0.00  0.00    +0.000 OA
ATOM     29  H   UNL     1      -6.962  52.186  49.482  0.00  0.00    +0.000 HD
ENDBRANCH   3  28
BRANCH   5  30
ATOM     30  C   UNL     1      -9.505  54.984  52.288  0.00  0.00    +0.000 C 
BRANCH  30  31
ATOM     31  C   UNL     1      -9.678  54.176  53.565  0.00  0.00    +0.000 C 
BRANCH  31  32
ATOM     32  C   UNL     1      -9.817  52.660  53.359  0.00  0.00    +0.000 C 
ATOM     33  C   UNL     1      -9.996  52.264  51.889  0.00  0.00    +0.000 C 
ATOM     34  C   UNL     1      -8.582  51.960  53.929  0.00  0.00    +0.000 C 
ENDBRANCH  31  32
ENDBRANCH  30  31
ENDBRANCH   5  30
TORSDOF 6
ENDMDL
MODEL 8
REMARK VINA RESULT:      -7.4      3.190      5.843
REMARK  Name = 352901
REMARK  8 active torsions:
REMARK  status: ('A' for Active; 'I' for Inactive)
REMARK    1  A    between atoms: C_6  and  C_10
REMARK    2  A    between atoms: C_12  and  O_16
REMARK    3  A    between atoms: C_14  and  O_19
REMARK    4  A    between atoms: N_18  and  C_22
REMARK    5  A    between atoms: C_22  and  C_25
REMARK    6  A    between atoms: C_25  and  C_28
REMARK    7  A    between atoms: C_28  and  C_29
REMARK    8  A    between atoms: C_28  and  C_30
REMARK                            x       y       z     vdW  Elec       q    Type
REMARK                         _______ _______ _______ _____ _____    ______ ____
ROOT
ATOM      1  C   UNL     1      -9.214  53.188  48.318  0.00  0.00    +0.000 A 
ATOM      2  C   UNL     1     -10.368  52.289  48.016  0.00  0.00    +0.000 A 
ATOM      3  C   UNL     1      -8.654  53.796  47.254  0.00  0.00    +0.000 A 
ATOM      4  O   UNL     1     -10.604  51.302  48.705  0.00  0.00    +0.000 OA
ATOM      5  N   UNL     1     -11.242  52.843  47.053  0.00  0.00    +0.000 N 
ATOM      6  C   UNL     1      -9.181  53.493  45.925  0.00  0.00    +0.000 A 
ATOM      7  C   UNL     1     -10.531  53.106  45.824  0.00  0.00    +0.000 A 
ATOM      8  C   UNL     1      -8.393  53.546  44.779  0.00  0.00    +0.000 A 
ATOM      9  N   UNL     1     -11.099  52.763  44.650  0.00  0.00    +0.000 NA
ATOM     10  C   UNL     1      -8.945  53.139  43.575  0.00  0.00    +0.000 A 
ATOM     11  C   UNL     1     -10.283  52.762  43.562  0.00  0.00    +0.000 A 
ENDROOT
BRANCH   1  17
ATOM     12  S   UNL     1      -9.924  53.924  52.042  0.00  0.00    +0.000 S 
ATOM     13  O   UNL     1     -10.577  55.183  52.307  0.00  0.00    +0.000 OA
ATOM     14  O   UNL     1     -10.372  52.716  52.712  0.00  0.00    +0.000 OA
ATOM     15  N   UNL     1      -9.985  53.659  50.463  0.00  0.00    +0.000 N 
ATOM     16  C   UNL     1      -8.249  54.126  52.481  0.00  0.00    +0.000 A 
ATOM     17  C   UNL     1      -8.915  53.590  49.730  0.00  0.00    +0.000 C 
ATOM     18  C   UNL     1      -7.274  54.022  51.494  0.00  0.00    +0.000 A 
ATOM     19  C   UNL     1      -7.967  54.377  53.824  0.00  0.00    +0.000 A 
ATOM     20  N   UNL     1      -7.617  53.768  50.162  0.00  0.00    +0.000 N 
ATOM     21  C   UNL     1      -5.947  54.192  51.897  0.00  0.00    +0.000 A 
ATOM     22  C   UNL     1      -6.649  54.536  54.194  0.00  0.00    +0.000 A 
ATOM     23  C   UNL     1      -5.637  54.447  53.243  0.00  0.00    +0.000 A 
ATOM     24  H   UNL     1     -10.864  53.545  50.034  0.00  0.00    +0.000 HD
ATOM     25  H   UNL     1      -6.893  53.715  49.497  0.00  0.00    +0.000 HD
BRANCH  22  26
ATOM     26  O   UNL     1      -6.318  54.783  55.490  0.00  0.00    +0.000 OA
ATOM     27  H   UNL     1      -6.742  54.314  56.181  0.00  0.00    +0.000 HD
ENDBRANCH  22  26
ENDBRANCH   1  17
BRANCH   3  28
ATOM     28  O   UNL     1      -7.699  54.787  47.290  0.00  0.00    +0.000 OA
ATOM     29  H   UNL     1      -6.921  54.707  46.773  0.00  0.00    +0.000 HD
ENDBRANCH   3  28
BRANCH   5  30
ATOM     30  C   UNL     1     -11.903  54.038  47.628  0.00  0.00    +0.000 C 
BRANCH  30  31
ATOM     31  C   UNL     1     -11.984  55.289  46.767  0.00  0.00    +0.000 C 
BRANCH  31  32
ATOM     32  C   UNL     1     -12.296  56.583  47.533  0.00  0.00    +0.000 C 
ATOM     33  C   UNL     1     -13.776  56.978  47.474  0.00  0.00    +0.000 C 
ATOM     34  C   UNL     1     -11.872  56.417  48.994  0.00  0.00    +0.000 C 
ENDBRANCH  31  32
ENDBRANCH  30  31
ENDBRANCH   5  30
TORSDOF 6
ENDMDL
MODEL 9
REMARK VINA RESULT:      -7.4      2.907      3.187
REMARK  Name = 352901
REMARK  8 active torsions:
REMARK  status: ('A' for Active; 'I' for Inactive)
REMARK    1  A    between atoms: C_6  and  C_10
REMARK    2  A    between atoms: C_12  and  O_16
REMARK    3  A    between atoms: C_14  and  O_19
REMARK    4  A    between atoms: N_18  and  C_22
REMARK    5  A    between atoms: C_22  and  C_25
REMARK    6  A    between atoms: C_25  and  C_28
REMARK    7  A    between atoms: C_28  and  C_29
REMARK    8  A    between atoms: C_28  and  C_30
REMARK                            x       y       z     vdW  Elec       q    Type
REMARK                         _______ _______ _______ _____ _____    ______ ____
ROOT
ATOM      1  C   UNL     1     -10.320  55.411  50.816  0.00  0.00    +0.000 A 
ATOM      2  C   UNL     1     -10.312  56.446  49.738  0.00  0.00    +0.000 A 
ATOM      3  C   UNL     1     -11.483  55.273  51.483  0.00  0.00    +0.000 A 
ATOM      4  O   UNL     1      -9.288  57.058  49.452  0.00  0.00    +0.000 OA
ATOM      5  N   UNL     1     -11.500  56.434  48.973  0.00  0.00    +0.000 N 
ATOM      6  C   UNL     1     -12.591  56.160  51.135  0.00  0.00    +0.000 A 
ATOM      7  C   UNL     1     -12.645  56.665  49.822  0.00  0.00    +0.000 A 
ATOM      8  C   UNL     1     -13.563  56.537  52.057  0.00  0.00    +0.000 A 
ATOM      9  N   UNL     1     -13.602  57.524  49.416  0.00  0.00    +0.000 NA
ATOM     10  C   UNL     1     -14.517  57.466  51.673  0.00  0.00    +0.000 A 
ATOM     11  C   UNL     1     -14.495  57.923  50.360  0.00  0.00    +0.000 A 
ENDROOT
BRANCH   1  17
ATOM     12  S   UNL     1      -8.618  51.944  50.817  0.00  0.00    +0.000 S 
ATOM     13  O   UNL     1      -8.812  51.164  52.015  0.00  0.00    +0.000 OA
ATOM     14  O   UNL     1      -8.753  51.322  49.511  0.00  0.00    +0.000 OA
ATOM     15  N   UNL     1      -9.623  53.191  50.872  0.00  0.00    +0.000 N 
ATOM     16  C   UNL     1      -6.993  52.571  50.885  0.00  0.00    +0.000 A 
ATOM     17  C   UNL     1      -9.203  54.419  50.922  0.00  0.00    +0.000 C 
ATOM     18  C   UNL     1      -6.801  53.948  50.955  0.00  0.00    +0.000 A 
ATOM     19  C   UNL     1      -5.950  51.645  50.857  0.00  0.00    +0.000 A 
ATOM     20  N   UNL     1      -7.887  54.829  50.979  0.00  0.00    +0.000 N 
ATOM     21  C   UNL     1      -5.480  54.400  51.008  0.00  0.00    +0.000 A 
ATOM     22  C   UNL     1      -4.657  52.119  50.906  0.00  0.00    +0.000 A 
ATOM     23  C   UNL     1      -4.412  53.487  50.982  0.00  0.00    +0.000 A 
ATOM     24  H   UNL     1     -10.593  53.019  50.867  0.00  0.00    +0.000 HD
ATOM     25  H   UNL     1      -7.702  55.794  51.040  0.00  0.00    +0.000 HD
BRANCH  22  26
ATOM     26  O   UNL     1      -3.602  51.260  50.883  0.00  0.00    +0.000 OA
ATOM     27  H   UNL     1      -3.634  50.491  50.350  0.00  0.00    +0.000 HD
ENDBRANCH  22  26
ENDBRANCH   1  17
BRANCH   3  28
ATOM     28  O   UNL     1     -11.789  54.286  52.393  0.00  0.00    +0.000 OA
ATOM     29  H   UNL     1     -12.379  54.466  53.098  0.00  0.00    +0.000 HD
ENDBRANCH   3  28
BRANCH   5  30
ATOM     30  C   UNL     1     -11.571  55.168  48.206  0.00  0.00    +0.000 C 
BRANCH  30  31
ATOM     31  C   UNL     1     -11.360  55.236  46.702  0.00  0.00    +0.000 C 
BRANCH  31  32
ATOM     32  C   UNL     1     -10.128  54.477  46.186  0.00  0.00    +0.000 C 
ATOM     33  C   UNL     1      -8.806  55.191  46.491  0.00  0.00    +0.000 C 
ATOM     34  C   UNL     1     -10.104  53.077  46.804  0.00  0.00    +0.000 C 
ENDBRANCH  31  32
ENDBRANCH  30  31
ENDBRANCH   5  30
TORSDOF 6
ENDMDL
