REMARK  Name = 
REMARK  9 active torsions:
REMARK  status: ('A' for Active; 'I' for Inactive)
REMARK    1  A    between atoms: C_2  and  C_4
REMARK    2  A    between atoms: C_11  and  C_12
REMARK    3  A    between atoms: C_15  and  O_16
REMARK    4  A    between atoms: O_16  and  C_17
REMARK    5  A    between atoms: C_17  and  C_18
REMARK    6  A    between atoms: C_20  and  C_21
REMARK    7  A    between atoms: C_26  and  O_27
REMARK    8  A    between atoms: C_32  and  C_33
REMARK    9  A    between atoms: N_43  and  C_44
REMARK                            x       y       z     vdW  Elec       q    Type
REMARK                         _______ _______ _______ _____ _____    ______ ____
ROOT
ATOM      1  C   UNL     1       7.350  -2.550   3.722  0.00  0.00    +0.053 A 
ATOM      2  C   UNL     1       8.560  -2.829   3.078  0.00  0.00    +0.018 A 
ATOM      3  C   UNL     1       9.743  -2.951   3.815  0.00  0.00    +0.046 A 
ATOM      4  C   UNL     1       9.746  -2.774   5.201  0.00  0.00    +0.124 A 
ATOM      5  C   UNL     1       8.550  -2.475   5.846  0.00  0.00    +0.084 A 
ATOM      6  C   UNL     1       7.371  -2.360   5.106  0.00  0.00    +0.137 A 
ATOM      7  F   UNL     1       6.240  -2.079   5.771  0.00  0.00    -0.205 F 
ENDROOT
BRANCH   1  15
ATOM      8  C   UNL     1       2.823  -1.437  -0.040  0.00  0.00    -0.001 A 
ATOM      9  C   UNL     1       2.130  -2.375   0.742  0.00  0.00    +0.012 A 
ATOM     10  C   UNL     1       2.722  -3.020   1.835  0.00  0.00    +0.028 A 
ATOM     11  C   UNL     1       4.052  -2.697   2.137  0.00  0.00    +0.069 A 
ATOM     12  C   UNL     1       4.768  -1.768   1.387  0.00  0.00    +0.090 A 
ATOM     13  C   UNL     1       4.158  -1.133   0.294  0.00  0.00    +0.039 A 
ATOM     14  N   UNL     1       6.043  -1.630   1.872  0.00  0.00    -0.227 NA
ATOM     15  C   UNL     1       6.130  -2.419   2.926  0.00  0.00    +0.145 A 
ATOM     16  N   UNL     1       4.949  -3.130   3.096  0.00  0.00    -0.320 N 
BRANCH  16  17
ATOM     17  C   UNL     1       4.729  -4.215   4.049  0.00  0.00    +0.089 C 
ATOM     18  C   UNL     1       3.644  -3.892   5.089  0.00  0.00    +0.025 C 
ATOM     19  C   UNL     1       3.495  -5.024   6.104  0.00  0.00    +0.002 C 
ATOM     20  C   UNL     1       3.241  -6.365   5.419  0.00  0.00    +0.000 C 
ATOM     21  C   UNL     1       4.325  -6.690   4.395  0.00  0.00    +0.002 C 
ATOM     22  C   UNL     1       4.483  -5.572   3.366  0.00  0.00    +0.025 C 
ENDBRANCH  16  17
BRANCH   8  24
ATOM     23  O   UNL     1       0.940  -1.092  -1.454  0.00  0.00    -0.545 OA
ATOM     24  C   UNL     1       2.148  -0.768  -1.221  0.00  0.00    +0.072 C 
ATOM     25  O   UNL     1       2.837   0.061  -1.894  0.00  0.00    -0.545 OA
ENDBRANCH   8  24
ENDBRANCH   1  15
BRANCH   4  26
ATOM     26  O   UNL     1      10.967  -2.938   5.787  0.00  0.00    -0.487 OA
BRANCH  26  27
ATOM     27  C   UNL     1      11.153  -2.578   7.154  0.00  0.00    +0.265 C 
BRANCH  27  28
ATOM     28  C   UNL     1      11.422  -1.097   7.341  0.00  0.00    -0.002 A 
ATOM     29  C   UNL     1      10.523  -0.334   8.112  0.00  0.00    +0.020 A 
ATOM     30  C   UNL     1      10.746   1.031   8.327  0.00  0.00    +0.037 A 
ATOM     31  C   UNL     1      11.837   1.665   7.738  0.00  0.00    +0.013 A 
ATOM     32  C   UNL     1      12.736   0.921   6.974  0.00  0.00    +0.009 A 
ATOM     33  C   UNL     1      12.552  -0.462   6.771  0.00  0.00    -0.011 A 
BRANCH  30  34
ATOM     34  C   UNL     1       9.788   1.843   9.112  0.00  0.00    +0.247 C 
ATOM     35  O   UNL     1       9.334   2.853   8.580  0.00  0.00    -0.270 OA
ATOM     36  N   UNL     1       9.444   1.437  10.401  0.00  0.00    -0.297 N 
ATOM     37  C   UNL     1      10.187   0.477  11.217  0.00  0.00    +0.110 C 
ATOM     38  C   UNL     1      10.736   1.155  12.471  0.00  0.00    +0.050 C 
ATOM     39  C   UNL     1       9.653   1.911  13.240  0.00  0.00    +0.118 C 
ATOM     40  C   UNL     1       8.843   2.839  12.332  0.00  0.00    +0.050 C 
ATOM     41  C   UNL     1       8.348   2.122  11.080  0.00  0.00    +0.110 C 
BRANCH  39  42
ATOM     42  O   UNL     1       8.802   0.990  13.921  0.00  0.00    -0.392 OA
ATOM     43  H   UNL     1       8.244   0.529  13.273  0.00  0.00    +0.210 HD
ENDBRANCH  39  42
ENDBRANCH  30  34
BRANCH  33  44
ATOM     44  C   UNL     1      13.546  -1.186   5.967  0.00  0.00    -0.017 A 
ATOM     45  C   UNL     1      13.432  -1.240   4.568  0.00  0.00    +0.010 A 
ATOM     46  C   UNL     1      14.378  -1.924   3.800  0.00  0.00    +0.020 A 
ATOM     47  C   UNL     1      15.451  -2.554   4.426  0.00  0.00    +0.041 A 
ATOM     48 CL   UNL     1      16.618  -3.396   3.485  0.00  0.00    -0.084 Cl
ATOM     49  C   UNL     1      15.586  -2.504   5.812  0.00  0.00    +0.020 A 
ATOM     50  C   UNL     1      14.638  -1.821   6.579  0.00  0.00    +0.010 A 
ENDBRANCH  33  44
ENDBRANCH  27  28
ENDBRANCH  26  27
ENDBRANCH   4  26
TORSDOF 9
