
 OpenBabel09122222393D

 50 56  0  0  1  0  0  0  0  0999 V2000
    9.3930   -2.4230    3.5450 C   0  0  0  0  0  0  0  0  0  0  0  0
   10.0380   -3.0310    4.6270 C   0  0  0  0  0  3  0  0  0  0  0  0
   10.6410   -2.2520    5.6200 C   0  0  0  0  0  3  0  0  0  0  0  0
   10.6340   -0.8570    5.5420 C   0  0  0  0  0  0  0  0  0  0  0  0
   10.0120   -0.2450    4.4570 C   0  0  0  0  0  3  0  0  0  0  0  0
    9.4070   -1.0280    3.4710 C   0  0  0  0  0  0  0  0  0  0  0  0
    8.8120   -0.3950    2.4480 F   0  0  0  0  0  0  0  0  0  0  0  0
    6.2390   -6.0210   -0.0590 C   0  0  0  0  0  0  0  0  0  0  0  0
    7.2300   -5.7090   -1.0030 C   0  0  0  0  0  3  0  0  0  0  0  0
    8.2960   -4.8490   -0.7110 C   0  0  0  0  0  3  0  0  0  0  0  0
    8.3520   -4.2980    0.5770 C   0  0  0  0  0  0  0  0  0  0  0  0
    7.3890   -4.5900    1.5400 C   0  0  0  0  0  0  0  0  0  0  0  0
    6.3270   -5.4520    1.2270 C   0  0  0  0  0  3  0  0  0  0  0  0
    7.6560   -3.9280    2.7100 N   0  0  0  0  0  0  0  0  0  0  0  0
    8.7780   -3.2610    2.5160 C   0  0  0  0  0  0  0  0  0  0  0  0
    9.2130   -3.4190    1.2060 N   0  0  0  0  0  0  0  0  0  0  0  0
   10.3200   -2.7040    0.5770 C   0  0  0  0  0  3  0  0  0  0  0  0
   11.3990   -3.6420    0.0110 C   0  0  0  0  0  2  0  0  0  0  0  0
   12.5680   -2.8520   -0.5760 C   0  0  0  0  0  2  0  0  0  0  0  0
   12.0960   -1.8390   -1.6170 C   0  0  0  0  0  2  0  0  0  0  0  0
   11.0340   -0.9010   -1.0510 C   0  0  0  0  0  2  0  0  0  0  0  0
    9.8520   -1.6730   -0.4660 C   0  0  0  0  0  2  0  0  0  0  0  0
    3.9390   -6.6310    0.0040 O   0  0  0  0  0  1  0  0  0  0  0  0
    5.0960   -6.9500   -0.4190 C   0  0  0  0  0  0  0  0  0  0  0  0
    5.3750   -7.9790   -1.1100 O   0  0  0  0  0  0  0  0  0  0  0  0
   11.2460   -0.2300    6.5880 O   0  0  0  0  0  0  0  0  0  0  0  0
   10.5990   -0.1710    7.8570 C   0  0  0  0  0  2  0  0  0  0  0  0
   11.4690   -0.6890    8.9860 C   0  0  0  0  0  0  0  0  0  0  0  0
   11.1540   -1.9300    9.5740 C   0  0  0  0  0  3  0  0  0  0  0  0
   11.9440   -2.4550   10.6030 C   0  0  0  0  0  0  0  0  0  0  0  0
   13.0270   -1.7310   11.0950 C   0  0  0  0  0  3  0  0  0  0  0  0
   13.3520   -0.5020   10.5200 C   0  0  0  0  0  3  0  0  0  0  0  0
   12.5920    0.0320    9.4590 C   0  0  0  0  0  0  0  0  0  0  0  0
   11.5980   -3.7440   11.2440 C   0  0  0  0  0  0  0  0  0  0  0  0
   10.6100   -3.7660   11.9740 O   0  0  0  0  0  0  0  0  0  0  0  0
   12.3930   -4.8640   10.9990 N   0  0  0  0  0  0  0  0  0  0  0  0
   13.7480   -4.8400   10.4490 C   0  0  0  0  0  2  0  0  0  0  0  0
   14.7470   -5.3830   11.4690 C   0  0  0  0  0  2  0  0  0  0  0  0
   14.3280   -6.7460   12.0190 C   0  0  1  0  0  3  0  0  0  0  0  0
   12.8760   -6.7500   12.5040 C   0  0  0  0  0  2  0  0  0  0  0  0
   11.9260   -6.1670   11.4630 C   0  0  0  0  0  2  0  0  0  0  0  0
   14.5420   -7.7590   11.0370 O   0  0  0  0  0  0  0  0  0  0  0  0
   13.8840   -7.6640   10.3290 H   0  0  0  0  0  0  0  0  0  0  0  0
   13.0000    1.3240    8.8920 C   0  0  0  0  0  0  0  0  0  0  0  0
   12.4070    2.5180    9.3350 C   0  0  0  0  0  3  0  0  0  0  0  0
   12.7960    3.7500    8.8010 C   0  0  0  0  0  3  0  0  0  0  0  0
   13.7880    3.7970    7.8240 C   0  0  0  0  0  0  0  0  0  0  0  0
   14.2700    5.3100    7.1640 Cl  0  0  0  0  0  0  0  0  0  0  0  0
   14.3940    2.6240    7.3780 C   0  0  0  0  0  3  0  0  0  0  0  0
   14.0030    1.3930    7.9120 C   0  0  0  0  0  3  0  0  0  0  0  0
  1  2  1  0  0  0  0
  2  3  2  0  0  0  0
  4  3  1  0  0  0  0
  4 26  1  0  0  0  0
  5  4  2  0  0  0  0
  6  1  2  0  0  0  0
  6  5  1  0  0  0  0
  7  6  1  0  0  0  0
  8 13  1  0  0  0  0
  9 10  1  0  0  0  0
  9  8  2  0  0  0  0
 10 11  2  0  0  0  0
 11 16  1  0  0  0  0
 11 12  1  0  0  0  0
 12 14  1  0  0  0  0
 13 12  2  0  0  0  0
 15 14  2  0  0  0  0
 15  1  1  0  0  0  0
 16 15  1  0  0  0  0
 17 16  1  0  0  0  0
 18 17  1  0  0  0  0
 19 18  1  0  0  0  0
 20 21  1  0  0  0  0
 20 19  1  0  0  0  0
 21 22  1  0  0  0  0
 22 17  1  0  0  0  0
 24  8  1  0  0  0  0
 24 23  1  0  0  0  0
 25 24  2  0  0  0  0
 26 27  1  0  0  0  0
 27 28  1  0  0  0  0
 28 33  2  0  0  0  0
 28 29  1  0  0  0  0
 29 30  2  0  0  0  0
 30 31  1  0  0  0  0
 30 34  1  0  0  0  0
 32 31  2  0  0  0  0
 33 32  1  0  0  0  0
 34 35  2  0  0  0  0
 36 34  1  0  0  0  0
 36 41  1  0  0  0  0
 37 36  1  0  0  0  0
 37 38  1  0  0  0  0
 38 39  1  0  0  0  0
 39 42  1  6  0  0  0
 39 40  1  0  0  0  0
 41 40  1  0  0  0  0
 43 42  1  0  0  0  0
 44 45  1  0  0  0  0
 44 33  1  0  0  0  0
 46 45  2  0  0  0  0
 47 46  1  0  0  0  0
 48 47  1  0  0  0  0
 49 47  2  0  0  0  0
 49 50  1  0  0  0  0
 50 44  2  0  0  0  0
M  END
>  <minimizedAffinity>
-9.90569687

$$$$
