REMARK  Name = 
REMARK  7 active torsions:
REMARK  status: ('A' for Active; 'I' for Inactive)
REMARK    1  A    between atoms: C_1  and  C_2
REMARK    2  A    between atoms: C_6  and  C_7
REMARK    3  A    between atoms: C_9  and  S_10
REMARK    4  A    between atoms: S_10  and  C_11
REMARK    5  A    between atoms: C_11  and  C_12
REMARK    6  A    between atoms: C_16  and  N_17
REMARK    7  A    between atoms: C_24  and  C_25
REMARK                            x       y       z     vdW  Elec       q    Type
REMARK                         _______ _______ _______ _____ _____    ______ ____
ROOT
ATOM      1  C   UNL     1      -1.764   2.725   0.123  0.00  0.00    +0.096 A 
ATOM      2  N   UNL     1      -2.686   2.971   1.122  0.00  0.00    -0.222 NA
ATOM      3  C   UNL     1      -3.554   3.902   0.921  0.00  0.00    +0.170 A 
ATOM      4  N   UNL     1      -3.602   4.655  -0.206  0.00  0.00    -0.301 N 
ATOM      5  C   UNL     1      -2.665   4.534  -1.188  0.00  0.00    +0.270 A 
ATOM      6  O   UNL     1      -2.664   5.286  -2.156  0.00  0.00    -0.266 OA
ATOM      7  C   UNL     1      -1.682   3.445  -1.011  0.00  0.00    +0.142 A 
ATOM      8  H   UNL     1      -4.316   5.351  -0.340  0.00  0.00    +0.171 HD
ENDROOT
BRANCH   1  14
ATOM      9  C   UNL     1       2.752   0.550   0.654  0.00  0.00    +0.044 C 
ATOM     10  C   UNL     1       1.256   0.457   0.594  0.00  0.00    -0.050 A 
ATOM     11  C   UNL     1       0.625  -0.791   0.646  0.00  0.00    +0.003 A 
ATOM     12  C   UNL     1      -0.763  -0.885   0.563  0.00  0.00    +0.001 A 
ATOM     13  C   UNL     1      -1.531   0.269   0.408  0.00  0.00    +0.010 A 
ATOM     14  C   UNL     1      -0.918   1.527   0.322  0.00  0.00    +0.002 A 
ATOM     15  C   UNL     1       0.478   1.613   0.425  0.00  0.00    +0.013 A 
ENDBRANCH   1  14
BRANCH   7  16
ATOM     16  C   UNL     1      -0.744   3.145  -2.168  0.00  0.00    +0.107 C 
ATOM     17  N   UNL     1       0.035   2.896  -3.128  0.00  0.00    -0.191 NA
ENDBRANCH   7  16
BRANCH   3  18
ATOM     18  S   UNL     1      -4.791   4.201   2.099  0.00  0.00    -0.083 S 
BRANCH  18  19
ATOM     19  C   UNL     1      -4.829   6.002   2.248  0.00  0.00    +0.112 C 
BRANCH  19  20
ATOM     20  C   UNL     1      -3.486   6.680   2.363  0.00  0.00    -0.031 A 
ATOM     21  C   UNL     1      -3.117   7.668   1.433  0.00  0.00    +0.005 A 
ATOM     22  C   UNL     1      -1.888   8.324   1.532  0.00  0.00    +0.007 A 
ATOM     23  C   UNL     1      -1.010   8.013   2.569  0.00  0.00    +0.084 A 
ATOM     24  C   UNL     1      -1.372   7.041   3.509  0.00  0.00    +0.273 A 
ATOM     25  C   UNL     1      -2.605   6.377   3.413  0.00  0.00    +0.088 A 
BRANCH  24  26
ATOM     26  N   UNL     1      -0.457   6.724   4.611  0.00  0.00    +0.080 N 
ATOM     27  O   UNL     1       0.672   7.236   4.588  0.00  0.00    +0.041 OA
ATOM     28  O   UNL     1      -0.868   5.968   5.503  0.00  0.00    -0.576 OA
ENDBRANCH  24  26
ENDBRANCH  19  20
ENDBRANCH  18  19
ENDBRANCH   3  18
TORSDOF 6
