REMARK  Name = 
REMARK  13 active torsions:
REMARK  status: ('A' for Active; 'I' for Inactive)
REMARK    1  A    between atoms: C_1  and  C_2
REMARK    2  A    between atoms: C_2  and  C_3
REMARK    3  A    between atoms: C_2  and  C_4
REMARK    4  A    between atoms: C_4  and  C_5
REMARK    5  A    between atoms: C_5  and  N_6
REMARK    6  A    between atoms: C_9  and  C_10
REMARK    7  A    between atoms: C_17  and  N_18
REMARK    8  A    between atoms: N_18  and  S_19
REMARK    9  A    between atoms: S_19  and  N_22
REMARK   10  A    between atoms: C_23  and  O_25
REMARK   11  A    between atoms: O_25  and  C_26
REMARK   12  A    between atoms: C_26  and  C_27
REMARK   13  A    between atoms: C_33  and  O_34
REMARK                            x       y       z     vdW  Elec       q    Type
REMARK                         _______ _______ _______ _____ _____    ______ ____
ROOT
ATOM      1  C   UNL     1       1.712   3.170  -4.485  0.00  0.00    +0.308 C 
ATOM      2  N   UNL     1       1.393   2.262  -5.404  0.00  0.00    -0.131 N 
ATOM      3  S   UNL     1       1.099   0.713  -4.937  0.00  0.00    +0.141 S 
ATOM      4  O   UNL     1      -0.034   0.196  -5.672  0.00  0.00    -0.129 OA
ATOM      5  O   UNL     1       2.316  -0.060  -4.824  0.00  0.00    -0.129 OA
ATOM      6  C   UNL     1       0.543   1.021  -3.283  0.00  0.00    +0.176 A 
ATOM      7  C   UNL     1      -1.131   0.727  -2.647  0.00  0.00    +0.059 A 
ATOM      8  C   UNL     1      -1.591   1.381  -1.022  0.00  0.00    +0.051 A 
ATOM      9  C   UNL     1      -0.376   2.351  -0.052  0.00  0.00    +0.028 A 
ATOM     10  C   UNL     1       1.241   2.749  -0.779  0.00  0.00    +0.053 A 
ATOM     11  C   UNL     1       1.692   2.080  -2.393  0.00  0.00    +0.148 A 
ATOM     12  N   UNL     1       2.502   2.819  -3.328  0.00  0.00    -0.200 N 
ATOM     13  H   UNL     1       0.739   2.530  -6.127  0.00  0.00    +0.339 HD
ATOM     14  H   UNL     1       3.040   3.555  -2.872  0.00  0.00    +0.298 HD
ENDROOT
BRANCH   1  18
ATOM     15  N   UNL     1      -0.345   2.578  -2.174  0.00  0.00    -0.292 N 
ATOM     16  C   UNL     1      -0.581   3.087  -3.613  0.00  0.00    +0.271 A 
ATOM     17  O   UNL     1      -1.331   2.641  -4.476  0.00  0.00    -0.267 OA
ATOM     18  C   UNL     1       0.548   4.024  -4.044  0.00  0.00    +0.170 A 
ATOM     19  C   UNL     1       0.657   5.093  -3.245  0.00  0.00    +0.148 A 
ATOM     20  C   UNL     1      -0.333   5.235  -2.183  0.00  0.00    +0.060 A 
ATOM     21  C   UNL     1      -0.751   6.498  -1.758  0.00  0.00    +0.016 A 
ATOM     22  C   UNL     1      -1.743   6.594  -0.797  0.00  0.00    +0.021 A 
ATOM     23  C   UNL     1      -2.288   5.421  -0.314  0.00  0.00    +0.113 A 
ATOM     24  N   UNL     1      -1.902   4.178  -0.700  0.00  0.00    -0.237 NA
ATOM     25  C   UNL     1      -0.872   4.065  -1.579  0.00  0.00    +0.147 A 
BRANCH  19  26
ATOM     26  O   UNL     1       1.724   5.959  -3.213  0.00  0.00    -0.505 OA
ATOM     27  H   UNL     1       2.166   5.982  -4.081  0.00  0.00    +0.292 HD
ENDBRANCH  19  26
BRANCH  15  28
ATOM     28  C   UNL     1       0.404   0.849  -1.222  0.00  0.00    +0.127 C 
BRANCH  28  29
ATOM     29  C   UNL     1       0.310  -0.886  -1.601  0.00  0.00    +0.025 C 
BRANCH  29  31
ATOM     30  C   UNL     1       1.162  -1.638   0.712  0.00  0.00    +0.007 C 
ATOM     31  C   UNL     1       1.362  -1.708  -0.803  0.00  0.00    -0.016 C 
ATOM     32  C   UNL     1       1.316  -3.172  -1.255  0.00  0.00    +0.007 C 
ENDBRANCH  29  31
ENDBRANCH  28  29
ENDBRANCH  15  28
ENDBRANCH   1  18
BRANCH   8  33
ATOM     33  N   UNL     1      -2.757   0.781  -0.473  0.00  0.00    -0.204 N 
ATOM     34  H   UNL     1      -3.481   0.527  -1.144  0.00  0.00    +0.175 HD
BRANCH  33  35
ATOM     35  S   UNL     1      -3.395   1.127   1.011  0.00  0.00    +0.129 S 
ATOM     36  O   UNL     1      -4.521   0.238   1.184  0.00  0.00    -0.135 OA
ATOM     37  O   UNL     1      -2.345   1.187   1.999  0.00  0.00    -0.135 OA
BRANCH  35  38
ATOM     38  N   UNL     1      -4.007   2.628   0.855  0.00  0.00    -0.138 N 
ATOM     39  C   UNL     1      -4.851   3.093  -0.138  0.00  0.00    +0.421 C 
ATOM     40  O   UNL     1      -5.401   4.177  -0.011  0.00  0.00    -0.225 OA
ATOM     41  H   UNL     1      -3.980   3.172   1.708  0.00  0.00    +0.181 HD
BRANCH  39  42
ATOM     42  O   UNL     1      -4.986   2.287  -1.222  0.00  0.00    -0.448 OA
BRANCH  42  43
ATOM     43  C   UNL     1      -5.724   2.849  -2.322  0.00  0.00    +0.249 C 
BRANCH  43  44
ATOM     44  C   UNL     1      -7.224   2.701  -2.115  0.00  0.00    +0.149 C 
ATOM     45 CL   UNL     1      -8.111   3.276  -3.542  0.00  0.00    -0.122 Cl
ENDBRANCH  43  44
ENDBRANCH  42  43
ENDBRANCH  39  42
ENDBRANCH  35  38
ENDBRANCH  33  35
ENDBRANCH   8  33
TORSDOF 11
