
 OpenBabel09122220363D

 45 47  0  0  1  0  0  0  0  0999 V2000
    2.7010   -1.5660    3.8360 C   0  0  2  0  0  3  0  0  0  0  0  0
    2.6630   -0.8080    4.9290 N   0  0  0  0  0  0  0  0  0  0  0  0
    1.7830    0.5810    4.9150 S   0  0  0  0  0  0  0  0  0  0  0  0
    1.0830    0.7200    6.1720 O   0  0  0  0  0  0  0  0  0  0  0  0
    2.5290    1.6910    4.3630 O   0  0  0  0  0  0  0  0  0  0  0  0
    0.5740    0.1330    3.6990 C   0  0  0  0  0  0  0  0  0  0  0  0
   -1.2020   -0.0940    3.9920 C   0  0  0  0  0  3  0  0  0  0  0  0
   -2.2270   -0.8420    2.7000 C   0  0  0  0  0  0  0  0  0  0  0  0
   -1.4590   -1.3840    1.1270 C   0  0  0  0  0  3  0  0  0  0  0  0
    0.3430   -1.2750    0.9230 C   0  0  0  0  0  3  0  0  0  0  0  0
    1.3510   -0.5150    2.2120 C   0  0  0  0  0  0  0  0  0  0  0  0
    2.6810   -0.9790    2.5160 N   0  0  0  0  0  0  0  0  0  0  0  0
    2.5560   -1.2700    5.8220 H   0  0  0  0  0  0  0  0  0  0  0  0
    3.0870   -1.5110    1.7470 H   0  0  0  0  0  0  0  0  0  0  0  0
    3.3600   -4.5860    4.4430 N   0  0  0  0  0  0  0  0  0  0  0  0
    2.4810   -3.9590    3.3380 C   0  0  0  0  0  0  0  0  0  0  0  0
    2.5300   -4.1310    2.1240 O   0  0  0  0  0  0  0  0  0  0  0  0
    1.7420   -2.7310    3.8700 C   0  0  1  0  0  3  0  0  0  0  0  0
    0.9480   -3.0230    4.9070 C   0  0  1  0  0  3  0  0  0  0  0  0
    0.8490   -4.4260    5.2970 C   0  0  2  0  0  3  0  0  0  0  0  0
   -0.3350   -4.9390    5.8300 C   0  0  0  0  0  3  0  0  0  0  0  0
   -0.4150   -6.2900    6.1230 C   0  0  0  0  0  3  0  0  0  0  0  0
    0.6890   -7.0740    5.8530 C   0  0  0  0  0  3  0  0  0  0  0  0
    1.8570   -6.6080    5.3420 N   0  0  0  0  0  0  0  0  0  0  0  0
    1.9810   -5.2720    5.1280 C   0  0  0  0  0  0  0  0  0  0  0  0
    0.3730   -2.1060    5.7550 O   0  0  0  0  0  0  0  0  0  0  0  0
    0.2410   -1.2580    5.2940 H   0  0  0  0  0  0  0  0  0  0  0  0
    5.3880   -4.5830    5.0280 C   0  0  0  0  0  1  0  0  0  0  0  0
    6.9130   -4.4020    4.1310 C   0  0  0  0  0  2  0  0  0  0  0  0
    5.9690   -5.1540    1.8540 C   0  0  0  0  0  1  0  0  0  0  0  0
    6.6640   -4.0400    2.6380 C   0  0  0  0  0  3  0  0  0  0  0  0
    5.8250   -2.7600    2.5560 C   0  0  0  0  0  1  0  0  0  0  0  0
   -3.6210   -0.6230    2.8760 N   0  0  0  0  0  0  0  0  0  0  0  0
   -4.1060   -1.3090    3.4530 H   0  0  0  0  0  0  0  0  0  0  0  0
   -4.6260    0.0520    1.7530 S   0  0  0  0  0  0  0  0  0  0  0  0
   -5.0490    1.3210    2.2990 O   0  0  0  0  0  0  0  0  0  0  0  0
   -4.0260   -0.0240    0.4430 O   0  0  0  0  0  0  0  0  0  0  0  0
   -5.9390   -0.9120    1.7460 N   0  0  0  0  0  0  0  0  0  0  0  0
   -7.1390   -0.6940    1.0920 C   0  0  0  0  0  0  0  0  0  0  0  0
   -7.9550   -1.5990    0.9990 O   0  0  0  0  0  0  0  0  0  0  0  0
   -5.7470   -1.8670    2.0190 H   0  0  0  0  0  0  0  0  0  0  0  0
   -7.3270    0.5610    0.6090 O   0  0  0  0  0  0  0  0  0  0  0  0
   -8.1790    0.6570   -0.5470 C   0  0  0  0  0  2  0  0  0  0  0  0
   -9.5130    1.3000   -0.1990 C   0  0  0  0  0  2  0  0  0  0  0  0
  -10.4200    0.2810    0.9370 Cl  0  0  0  0  0  0  0  0  0  0  0  0
  1 12  1  6  0  0  0
  1 18  1  0  0  0  0
  1  2  1  0  0  0  0
  2 13  1  0  0  0  0
  3  2  1  0  0  0  0
  3  4  2  0  0  0  0
  5  3  2  0  0  0  0
  6  7  1  0  0  0  0
  6  3  1  0  0  0  0
  8 33  1  0  0  0  0
  8  7  2  0  0  0  0
  9  8  1  0  0  0  0
 10  9  2  0  0  0  0
 10 11  1  0  0  0  0
 11 12  1  0  0  0  0
 11  6  2  0  0  0  0
 14 12  1  0  0  0  0
 15 25  2  0  0  0  0
 16 15  1  0  0  0  0
 17 16  2  0  0  0  0
 18 16  1  1  0  0  0
 18 19  1  0  0  0  0
 19 20  1  0  0  0  0
 19 26  1  1  0  0  0
 20 21  1  1  0  0  0
 21 22  2  0  0  0  0
 23 22  1  0  0  0  0
 24 23  2  0  0  0  0
 25 20  1  0  0  0  0
 25 24  1  0  0  0  0
 27 26  1  0  0  0  0
 29 28  1  0  0  0  0
 30 31  1  0  0  0  0
 31 29  1  0  0  0  0
 32 31  1  0  0  0  0
 33 34  1  0  0  0  0
 35 36  2  0  0  0  0
 35 33  1  0  0  0  0
 37 35  2  0  0  0  0
 38 35  1  0  0  0  0
 38 41  1  0  0  0  0
 39 38  1  0  0  0  0
 40 39  2  0  0  0  0
 42 39  1  0  0  0  0
 43 44  1  0  0  0  0
 43 42  1  0  0  0  0
 44 45  1  0  0  0  0
M  END
>  <minimizedAffinity>
71.5629425

$$$$

 OpenBabel09122220363D

 45 47  0  0  1  0  0  0  0  0999 V2000
    2.5400   -1.3570    3.6690 C   0  0  2  0  0  3  0  0  0  0  0  0
    2.5010   -0.6040    4.7650 N   0  0  0  0  0  0  0  0  0  0  0  0
    1.4170    0.6290    4.8570 S   0  0  0  0  0  0  0  0  0  0  0  0
    0.8430    0.6670    6.1840 O   0  0  0  0  0  0  0  0  0  0  0  0
    1.9150    1.8370    4.2370 O   0  0  0  0  0  0  0  0  0  0  0  0
    0.1700   -0.0150    3.7750 C   0  0  0  0  0  0  0  0  0  0  0  0
   -1.5070   -0.5150    4.2560 C   0  0  0  0  0  3  0  0  0  0  0  0
   -2.5340   -1.4270    3.0760 C   0  0  0  0  0  0  0  0  0  0  0  0
   -1.8650   -1.8560    1.4250 C   0  0  0  0  0  3  0  0  0  0  0  0
   -0.1350   -1.4670    1.0290 C   0  0  0  0  0  3  0  0  0  0  0  0
    0.8740   -0.5460    2.2080 C   0  0  0  0  0  0  0  0  0  0  0  0
    2.2850   -0.7930    2.3640 N   0  0  0  0  0  0  0  0  0  0  0  0
    2.5650   -1.0690    5.6610 H   0  0  0  0  0  0  0  0  0  0  0  0
    2.6850   -1.2610    1.5510 H   0  0  0  0  0  0  0  0  0  0  0  0
    3.7350   -4.2510    4.0150 N   0  0  0  0  0  0  0  0  0  0  0  0
    2.6030   -3.7430    3.0950 C   0  0  0  0  0  0  0  0  0  0  0  0
    2.4770   -3.8750    1.8810 O   0  0  0  0  0  0  0  0  0  0  0  0
    1.7850   -2.6580    3.7970 C   0  0  1  0  0  3  0  0  0  0  0  0
    1.2240   -3.0960    4.9310 C   0  0  1  0  0  3  0  0  0  0  0  0
    1.4030   -4.5050    5.2620 C   0  0  1  0  0  3  0  0  0  0  0  0
    0.4120   -5.2100    5.9500 C   0  0  0  0  0  3  0  0  0  0  0  0
    0.5850   -6.5640    6.1850 C   0  0  0  0  0  3  0  0  0  0  0  0
    1.7350   -7.1590    5.7060 C   0  0  0  0  0  3  0  0  0  0  0  0
    2.7200   -6.5040    5.0390 N   0  0  0  0  0  0  0  0  0  0  0  0
    2.6050   -5.1600    4.8750 C   0  0  0  0  0  0  0  0  0  0  0  0
    0.6650   -2.3010    5.9030 O   0  0  0  0  0  0  0  0  0  0  0  0
    0.3340   -1.4720    5.5120 H   0  0  0  0  0  0  0  0  0  0  0  0
    5.8080   -3.9460    4.2710 C   0  0  0  0  0  1  0  0  0  0  0  0
    7.2020   -4.0850    3.1760 C   0  0  0  0  0  2  0  0  0  0  0  0
    6.9150   -6.2990    1.8900 C   0  0  0  0  0  1  0  0  0  0  0  0
    6.8170   -4.7740    1.8360 C   0  0  0  0  0  3  0  0  0  0  0  0
    5.3910   -4.3690    1.4450 C   0  0  0  0  0  1  0  0  0  0  0  0
   -3.9180   -1.4280    3.4030 N   0  0  0  0  0  0  0  0  0  0  0  0
   -4.2660   -2.2770    3.8470 H   0  0  0  0  0  0  0  0  0  0  0  0
   -5.0990   -0.6610    2.5400 S   0  0  0  0  0  0  0  0  0  0  0  0
   -5.5080   -1.5850    1.5060 O   0  0  0  0  0  0  0  0  0  0  0  0
   -6.0700   -0.0810    3.4360 O   0  0  0  0  0  0  0  0  0  0  0  0
   -4.3310    0.5640    1.7910 N   0  0  0  0  0  0  0  0  0  0  0  0
   -4.8900    1.7250    1.2880 C   0  0  0  0  0  0  0  0  0  0  0  0
   -4.1680    2.6500    0.9460 O   0  0  0  0  0  0  0  0  0  0  0  0
   -3.3330    0.5870    1.9610 H   0  0  0  0  0  0  0  0  0  0  0  0
   -6.2440    1.7340    1.1910 O   0  0  0  0  0  0  0  0  0  0  0  0
   -6.8220    0.6070    0.5080 C   0  0  0  0  0  2  0  0  0  0  0  0
   -8.3200    0.5170    0.7580 C   0  0  0  0  0  2  0  0  0  0  0  0
   -8.8570   -1.1760    0.7290 Cl  0  0  0  0  0  0  0  0  0  0  0  0
  1 12  1  6  0  0  0
  1 18  1  0  0  0  0
  1  2  1  0  0  0  0
  2  3  1  0  0  0  0
  2 13  1  0  0  0  0
  3  4  2  0  0  0  0
  5  3  2  0  0  0  0
  6  7  1  0  0  0  0
  6  3  1  0  0  0  0
  8 33  1  0  0  0  0
  8  7  2  0  0  0  0
  9  8  1  0  0  0  0
 10  9  2  0  0  0  0
 10 11  1  0  0  0  0
 11 12  1  0  0  0  0
 11  6  2  0  0  0  0
 14 12  1  0  0  0  0
 15 25  2  0  0  0  0
 16 15  1  0  0  0  0
 17 16  2  0  0  0  0
 18 16  1  1  0  0  0
 18 19  1  0  0  0  0
 19 20  1  0  0  0  0
 19 26  1  1  0  0  0
 20 21  1  6  0  0  0
 21 22  2  0  0  0  0
 23 22  1  0  0  0  0
 24 23  2  0  0  0  0
 25 24  1  0  0  0  0
 25 20  1  0  0  0  0
 27 26  1  0  0  0  0
 29 28  1  0  0  0  0
 31 30  1  0  0  0  0
 31 29  1  0  0  0  0
 32 31  1  0  0  0  0
 33 34  1  0  0  0  0
 35 33  1  0  0  0  0
 35 37  2  0  0  0  0
 36 35  2  0  0  0  0
 38 41  1  0  0  0  0
 38 35  1  0  0  0  0
 39 38  1  0  0  0  0
 40 39  2  0  0  0  0
 42 39  1  0  0  0  0
 43 44  1  0  0  0  0
 43 42  1  0  0  0  0
 45 44  1  0  0  0  0
M  END
>  <minimizedAffinity>
73.6488724

$$$$

 OpenBabel09122220363D

 45 47  0  0  1  0  0  0  0  0999 V2000
    2.5510   -1.9050    4.2200 C   0  0  2  0  0  3  0  0  0  0  0  0
    2.3450   -1.1400    5.2890 N   0  0  0  0  0  0  0  0  0  0  0  0
    1.6120    0.3200    5.1040 S   0  0  0  0  0  0  0  0  0  0  0  0
    0.6730    0.5270    6.1840 O   0  0  0  0  0  0  0  0  0  0  0  0
    2.5520    1.3570    4.7400 O   0  0  0  0  0  0  0  0  0  0  0  0
    0.6580   -0.0280    3.6520 C   0  0  0  0  0  0  0  0  0  0  0  0
   -1.1520   -0.0970    3.5540 C   0  0  0  0  0  3  0  0  0  0  0  0
   -1.9370   -0.7610    2.0630 C   0  0  0  0  0  0  0  0  0  0  0  0
   -0.8990   -1.3780    0.6840 C   0  0  0  0  0  3  0  0  0  0  0  0
    0.9080   -1.4270    0.8730 C   0  0  0  0  0  3  0  0  0  0  0  0
    1.6770   -0.7500    2.3580 C   0  0  0  0  0  0  0  0  0  0  0  0
    2.8650   -1.3270    2.9340 N   0  0  0  0  0  0  0  0  0  0  0  0
    2.0100   -1.5860    6.1320 H   0  0  0  0  0  0  0  0  0  0  0  0
    3.3800   -1.8960    2.2640 H   0  0  0  0  0  0  0  0  0  0  0  0
    2.7340   -4.9300    5.0780 N   0  0  0  0  0  0  0  0  0  0  0  0
    2.2430   -4.2960    3.7580 C   0  0  0  0  0  0  0  0  0  0  0  0
    2.5940   -4.5390    2.6080 O   0  0  0  0  0  0  0  0  0  0  0  0
    1.5100   -2.9820    4.0330 C   0  0  1  0  0  3  0  0  0  0  0  0
    0.4450   -3.1480    4.8270 C   0  0  1  0  0  3  0  0  0  0  0  0
    0.1140   -4.5130    5.2210 C   0  0  1  0  0  3  0  0  0  0  0  0
   -1.2130   -4.8940    5.4320 C   0  0  0  0  0  3  0  0  0  0  0  0
   -1.4970   -6.2150    5.7360 C   0  0  0  0  0  3  0  0  0  0  0  0
   -0.4410   -7.1030    5.7980 C   0  0  0  0  0  3  0  0  0  0  0  0
    0.8600   -6.7650    5.6040 N   0  0  0  0  0  0  0  0  0  0  0  0
    1.1630   -5.4590    5.3890 C   0  0  0  0  0  0  0  0  0  0  0  0
   -0.2420   -2.1390    5.4590 O   0  0  0  0  0  0  0  0  0  0  0  0
   -0.1660   -1.3100    4.9530 H   0  0  0  0  0  0  0  0  0  0  0  0
    4.5260   -5.0640    6.1860 C   0  0  0  0  0  1  0  0  0  0  0  0
    6.1560   -4.3930    5.9490 C   0  0  0  0  0  2  0  0  0  0  0  0
    7.0990   -2.2380    4.8980 C   0  0  0  0  0  1  0  0  0  0  0  0
    6.2250   -3.4760    4.6950 C   0  0  0  0  0  3  0  0  0  0  0  0
    6.7520   -4.2810    3.5020 C   0  0  0  0  0  1  0  0  0  0  0  0
   -3.3110   -0.4200    1.9390 N   0  0  0  0  0  0  0  0  0  0  0  0
   -3.9640   -1.0320    2.4270 H   0  0  0  0  0  0  0  0  0  0  0  0
   -4.0030    0.2710    0.6080 S   0  0  0  0  0  0  0  0  0  0  0  0
   -3.0020    0.2330   -0.4330 O   0  0  0  0  0  0  0  0  0  0  0  0
   -5.3160   -0.2840    0.3880 O   0  0  0  0  0  0  0  0  0  0  0  0
   -4.1940    1.8370    1.0110 N   0  0  0  0  0  0  0  0  0  0  0  0
   -5.3130    2.4310    1.5690 C   0  0  0  0  0  0  0  0  0  0  0  0
   -5.2400    3.5660    2.0170 O   0  0  0  0  0  0  0  0  0  0  0  0
   -3.3240    2.3440    1.1110 H   0  0  0  0  0  0  0  0  0  0  0  0
   -6.4470    1.6850    1.5520 O   0  0  0  0  0  0  0  0  0  0  0  0
   -6.8730    1.2390    0.2520 C   0  0  0  0  0  2  0  0  0  0  0  0
   -8.3210    0.7720    0.2750 C   0  0  0  0  0  2  0  0  0  0  0  0
   -8.4700   -0.7590    1.1620 Cl  0  0  0  0  0  0  0  0  0  0  0  0
  1 12  1  6  0  0  0
  1  2  1  0  0  0  0
  2 13  1  0  0  0  0
  3  2  1  0  0  0  0
  3  4  2  0  0  0  0
  5  3  2  0  0  0  0
  6  3  1  0  0  0  0
  7  6  1  0  0  0  0
  8  7  2  0  0  0  0
  9 10  2  0  0  0  0
  9  8  1  0  0  0  0
 10 11  1  0  0  0  0
 11 12  1  0  0  0  0
 11  6  2  0  0  0  0
 14 12  1  0  0  0  0
 15 25  2  0  0  0  0
 16 15  1  0  0  0  0
 17 16  2  0  0  0  0
 18 16  1  1  0  0  0
 18  1  1  0  0  0  0
 18 19  1  0  0  0  0
 19 20  1  0  0  0  0
 19 26  1  1  0  0  0
 20 25  1  0  0  0  0
 20 21  1  6  0  0  0
 21 22  2  0  0  0  0
 22 23  1  0  0  0  0
 24 23  2  0  0  0  0
 25 24  1  0  0  0  0
 27 26  1  0  0  0  0
 29 28  1  0  0  0  0
 31 30  1  0  0  0  0
 31 29  1  0  0  0  0
 32 31  1  0  0  0  0
 33  8  1  0  0  0  0
 33 34  1  0  0  0  0
 35 38  1  0  0  0  0
 35 33  1  0  0  0  0
 36 35  2  0  0  0  0
 37 35  2  0  0  0  0
 38 41  1  0  0  0  0
 38 39  1  0  0  0  0
 39 40  2  0  0  0  0
 42 39  1  0  0  0  0
 43 44  1  0  0  0  0
 43 42  1  0  0  0  0
 44 45  1  0  0  0  0
M  END
>  <minimizedAffinity>
73.7246704

$$$$
