REMARK  Name = 
REMARK  4 active torsions:
REMARK  status: ('A' for Active; 'I' for Inactive)
REMARK    1  A    between atoms: C_1  and  C_2
REMARK    2  A    between atoms: C_5  and  C_6
REMARK    3  A    between atoms: C_8  and  C_9
REMARK    4  A    between atoms: C_9  and  C_11
REMARK                            x       y       z     vdW  Elec       q    Type
REMARK                         _______ _______ _______ _____ _____    ______ ____
ROOT
ATOM      1  C   UNL     1      -2.996   0.702  -0.756  0.00  0.00    -0.061 C 
ATOM      2  O   UNL     1      -3.733   0.008  -1.513  0.00  0.00    -0.871 OA
ATOM      3  C   UNL     1      -3.173   1.882  -0.116  0.00  0.00    +0.048 C 
ENDROOT
BRANCH   1   8
ATOM      4  C   UNL     1       1.622   0.333   0.846  0.00  0.00    +0.086 C 
ATOM      5  C   UNL     1       0.422  -0.169   0.157  0.00  0.00    +0.103 A 
ATOM      6  C   UNL     1       0.117  -1.335  -0.496  0.00  0.00    +0.045 A 
ATOM      7  C   UNL     1      -1.216  -1.184  -0.941  0.00  0.00    +0.049 A 
ATOM      8  C   UNL     1      -1.695   0.073  -0.548  0.00  0.00    +0.121 A 
ATOM      9  O   UNL     1      -0.640   0.675   0.134  0.00  0.00    -0.461 OA
ENDBRANCH   1   8
BRANCH   3  10
ATOM     10  C   UNL     1      -4.370   2.800  -0.099  0.00  0.00    +0.201 C 
ATOM     11  O   UNL     1      -5.418   2.635  -0.720  0.00  0.00    -0.286 OA
BRANCH  10  12
ATOM     12  C   UNL     1      -4.294   4.093   0.777  0.00  0.00    +0.111 C 
ATOM     13  O   UNL     1      -3.222   4.281   1.453  0.00  0.00    -0.541 OA
ATOM     14  O   UNL     1      -5.293   4.893   0.776  0.00  0.00    -0.541 OA
ENDBRANCH  10  12
ENDBRANCH   3  10
TORSDOF 3
