
 OpenBabel09122222393D

 14 14  0  0  0  0  0  0  0  0999 V2000
    2.4690   -3.2850    4.3710 C   0  0  0  0  0  0  0  0  0  0  0  0
    1.7350   -4.2990    4.5420 O   0  0  0  0  0  0  0  0  0  0  0  0
    3.7730   -3.1290    4.0390 C   0  0  0  0  0  2  0  0  0  0  0  0
   -0.8350    0.2020    3.3960 C   0  0  0  0  0  1  0  0  0  0  0  0
    0.2370   -0.4110    4.1980 C   0  0  0  0  0  0  0  0  0  0  0  0
    0.8830   -0.0560    5.3530 C   0  0  0  0  0  3  0  0  0  0  0  0
    1.8230   -1.0830    5.5930 C   0  0  0  0  0  3  0  0  0  0  0  0
    1.7290   -2.0440    4.5770 C   0  0  0  0  0  0  0  0  0  0  0  0
    0.7270   -1.5850    3.7250 O   0  0  0  0  0  0  0  0  0  0  0  0
    4.8270   -4.1690    3.7540 C   0  0  0  0  0  0  0  0  0  0  0  0
    5.7890   -4.4410    4.4700 O   0  0  0  0  0  0  0  0  0  0  0  0
    4.7130   -4.9880    2.4270 C   0  0  0  0  0  0  0  0  0  0  0  0
    3.5400   -5.3440    2.0570 O   0  0  0  0  0  1  0  0  0  0  0  0
    5.7850   -5.2600    1.7820 O   0  0  0  0  0  0  0  0  0  0  0  0
  1  2  2  0  0  0  0
  1  8  1  0  0  0  0
  3  1  1  0  0  0  0
  4  5  1  0  0  0  0
  5  6  2  0  0  0  0
  6  7  1  0  0  0  0
  8  7  2  0  0  0  0
  9  5  1  0  0  0  0
  9  8  1  0  0  0  0
 10  3  1  0  0  0  0
 10 11  2  0  0  0  0
 12 10  1  0  0  0  0
 13 12  1  0  0  0  0
 14 12  2  0  0  0  0
M  END
>  <minimizedAffinity>
1.78065383

$$$$
