
 OpenBabel09122222393D

 14 14  0  0  0  0  0  0  0  0999 V2000
    2.6920   -3.4440    4.5460 C   0  0  0  0  0  0  0  0  0  0  0  0
    2.3110   -4.0750    5.5730 O   0  0  0  0  0  0  0  0  0  0  0  0
    2.3270   -2.2620    3.9940 C   0  0  0  0  0  2  0  0  0  0  0  0
    5.0110   -5.3430    0.6670 C   0  0  0  0  0  1  0  0  0  0  0  0
    4.8620   -5.0560    2.1030 C   0  0  0  0  0  0  0  0  0  0  0  0
    5.6110   -5.3450    3.2140 C   0  0  0  0  0  3  0  0  0  0  0  0
    4.9070   -4.7830    4.3040 C   0  0  0  0  0  3  0  0  0  0  0  0
    3.7430   -4.1630    3.8310 C   0  0  0  0  0  0  0  0  0  0  0  0
    3.7530   -4.3580    2.4520 O   0  0  0  0  0  0  0  0  0  0  0  0
    1.2920   -1.2640    4.4500 C   0  0  0  0  0  0  0  0  0  0  0  0
    1.1520   -0.8370    5.5950 O   0  0  0  0  0  0  0  0  0  0  0  0
    0.2860   -0.7090    3.3890 C   0  0  0  0  0  0  0  0  0  0  0  0
    0.7390   -0.4900    2.2110 O   0  0  0  0  0  0  0  0  0  0  0  0
   -0.9260   -0.5030    3.7430 O   0  0  0  0  0  1  0  0  0  0  0  0
  1  2  2  0  0  0  0
  3 10  1  0  0  0  0
  3  1  1  0  0  0  0
  4  5  1  0  0  0  0
  5  9  1  0  0  0  0
  5  6  2  0  0  0  0
  6  7  1  0  0  0  0
  8  7  2  0  0  0  0
  8  1  1  0  0  0  0
  9  8  1  0  0  0  0
 10 11  2  0  0  0  0
 12 14  1  0  0  0  0
 12 10  1  0  0  0  0
 13 12  2  0  0  0  0
M  END
>  <minimizedAffinity>
-0.000828985998

$$$$
