REMARK  Name = 
REMARK  6 active torsions:
REMARK  status: ('A' for Active; 'I' for Inactive)
REMARK    1  A    between atoms: C_1  and  C_2
REMARK    2  A    between atoms: C_7  and  C_8
REMARK    3  A    between atoms: C_11  and  C_12
REMARK    4  A    between atoms: CA_13  and  N_14
REMARK    5  A    between atoms: CA_13  and  C_23
REMARK    6  A    between atoms: C_15  and  C_17
REMARK                            x       y       z     vdW  Elec       q    Type
REMARK                         _______ _______ _______ _____ _____    ______ ____
ROOT
ATOM      1  C   UNL     1       2.420   5.770   1.212  0.00  0.00    +0.040 C 
ATOM      2  CA  UNL     1       1.795   6.434   2.207  0.00  0.00    +0.057 C 
ENDROOT
BRANCH   1   6
ATOM      3  C   UNL     1       1.091   2.335  -0.068  0.00  0.00    +0.020 A 
ATOM      4  C   UNL     1       1.671   2.979  -1.139  0.00  0.00    +0.017 A 
ATOM      5  C   UNL     1       2.195   4.252  -0.774  0.00  0.00    +0.016 A 
ATOM      6  C   UNL     1       1.991   4.572   0.560  0.00  0.00    +0.015 A 
ATOM      7  S   UNL     1       1.214   3.261   1.362  0.00  0.00    -0.089 S 
BRANCH   3  14
ATOM      8  C   UNL     1       2.665  -0.190   0.011  0.00  0.00    +0.044 C 
ATOM      9  C   UNL     1       1.160  -0.177  -0.011  0.00  0.00    -0.042 A 
ATOM     10  C   UNL     1       0.463  -1.397  -0.009  0.00  0.00    +0.004 A 
ATOM     11  C   UNL     1      -0.932  -1.423  -0.024  0.00  0.00    +0.000 A 
ATOM     12  C   UNL     1      -1.651  -0.232  -0.042  0.00  0.00    +0.001 A 
ATOM     13  C   UNL     1      -0.973   0.987  -0.050  0.00  0.00    +0.009 A 
ATOM     14  C   UNL     1       0.431   1.030  -0.034  0.00  0.00    -0.008 A 
ENDBRANCH   3  14
ENDBRANCH   1   6
BRANCH   2  15
ATOM     15  N   UNL     1       0.627   5.983   2.806  0.00  0.00    -0.280 N 
ATOM     16  C   UNL     1      -0.197   6.559   3.745  0.00  0.00    +0.248 C 
ATOM     17  O   UNL     1      -1.024   5.863   4.342  0.00  0.00    -0.270 OA
ATOM     18  H   UNL     1       0.367   5.028   2.598  0.00  0.00    +0.155 HD
BRANCH  16  19
ATOM     19  C   UNL     1      -0.217   8.017   3.987  0.00  0.00    +0.037 A 
ATOM     20  C   UNL     1      -0.284   8.478   5.307  0.00  0.00    +0.013 A 
ATOM     21  C   UNL     1      -0.391   9.846   5.565  0.00  0.00    +0.001 A 
ATOM     22  C   UNL     1      -0.450  10.752   4.505  0.00  0.00    +0.000 A 
ATOM     23  C   UNL     1      -0.407  10.292   3.188  0.00  0.00    +0.001 A 
ATOM     24  C   UNL     1      -0.305   8.924   2.926  0.00  0.00    +0.013 A 
ENDBRANCH  16  19
ENDBRANCH   2  15
BRANCH   2  25
ATOM     25  C   UNL     1       2.583   7.714   2.638  0.00  0.00    +0.086 C 
ATOM     26  O   UNL     1       2.779   8.557   1.713  0.00  0.00    -0.543 OA
ATOM     27  OXT UNL     1       2.967   7.723   3.842  0.00  0.00    -0.543 OA
ENDBRANCH   2  25
TORSDOF 5
