
 OpenBabel09122223503D

 27 29  0  0  0  0  0  0  0  0999 V2000
    2.5090   -2.6240    6.2310 C   0  0  0  0  0  2  0  0  0  0  0  0
    2.8650   -2.6100    7.5330 C   0  0  0  0  0  0  0  0  0  0  0  0
    4.0460   -4.6030    3.2430 C   0  0  0  0  0  0  0  0  0  0  0  0
    3.2000   -5.4590    3.9150 C   0  0  0  0  0  3  0  0  0  0  0  0
    2.5800   -4.8270    5.0310 C   0  0  0  0  0  3  0  0  0  0  0  0
    2.9740   -3.5090    5.2090 C   0  0  0  0  0  0  0  0  0  0  0  0
    4.0550   -3.0480    3.9500 S   0  0  0  0  0  0  0  0  0  0  0  0
    7.0130   -4.4090    3.3680 C   0  0  0  0  0  1  0  0  0  0  0  0
    6.2800   -4.7710    2.1050 C   0  0  0  0  0  0  0  0  0  0  0  0
    7.0140   -5.0140    0.9310 C   0  0  0  0  0  3  0  0  0  0  0  0
    6.3680   -5.3560   -0.2570 C   0  0  0  0  0  3  0  0  0  0  0  0
    4.9810   -5.4600   -0.2920 C   0  0  0  0  0  3  0  0  0  0  0  0
    4.2390   -5.2160    0.8640 C   0  0  0  0  0  3  0  0  0  0  0  0
    4.8740   -4.8720    2.0680 C   0  0  0  0  0  0  0  0  0  0  0  0
    3.8290   -3.4540    8.0660 N   0  0  0  0  0  4  0  0  0  0  0  0
    5.1670   -3.2620    8.3240 C   0  0  0  0  0  0  0  0  0  0  0  0
    5.8950   -4.2360    8.5360 O   0  0  0  0  0  0  0  0  0  0  0  0
    3.5410   -4.4120    8.2150 H   0  0  0  0  0  0  0  0  0  0  0  0
    5.7540   -1.9140    8.4770 C   0  0  0  0  0  0  0  0  0  0  0  0
    5.3810   -1.1410    9.5840 C   0  0  0  0  0  3  0  0  0  0  0  0
    5.8510    0.1670    9.7130 C   0  0  0  0  0  3  0  0  0  0  0  0
    6.6770    0.7110    8.7270 C   0  0  0  0  0  3  0  0  0  0  0  0
    7.0290   -0.0500    7.6120 C   0  0  0  0  0  3  0  0  0  0  0  0
    6.5580   -1.3580    7.4770 C   0  0  0  0  0  3  0  0  0  0  0  0
    2.1170   -1.4920    8.3300 C   0  0  0  0  0  0  0  0  0  0  0  0
    1.9280   -1.7460    9.5560 O   0  0  0  0  0  1  0  0  0  0  0  0
    1.7510   -0.4990    7.6390 O   0  0  0  0  0  0  0  0  0  0  0  0
  1  2  1  0  0  0  0
  2 15  2  0  0  0  0
  2 25  1  0  0  0  0
  3  4  2  0  0  0  0
  3  7  1  0  0  0  0
  4  5  1  0  0  0  0
  5  6  2  0  0  0  0
  6  1  1  0  0  0  0
  7  6  1  0  0  0  0
  9  8  1  0  0  0  0
 10  9  2  0  0  0  0
 11 10  1  0  0  0  0
 12 11  2  0  0  0  0
 12 13  1  0  0  0  0
 13 14  2  0  0  0  0
 14  9  1  0  0  0  0
 14  3  1  0  0  0  0
 15 18  1  0  0  0  0
 15 16  1  0  0  0  0
 16 19  1  0  0  0  0
 16 17  2  0  0  0  0
 19 20  1  0  0  0  0
 20 21  2  0  0  0  0
 22 21  1  0  0  0  0
 23 22  2  0  0  0  0
 24 23  1  0  0  0  0
 24 19  2  0  0  0  0
 25 26  1  0  0  0  0
 27 25  2  0  0  0  0
M  END
>  <minimizedAffinity>
-3.17482233

$$$$

 OpenBabel09122223503D

 27 29  0  0  0  0  0  0  0  0999 V2000
    2.4240   -2.5610    6.5560 C   0  0  0  0  0  2  0  0  0  0  0  0
    3.0370   -1.5810    7.2530 C   0  0  0  0  0  0  0  0  0  0  0  0
    4.1120   -4.5370    3.6490 C   0  0  0  0  0  0  0  0  0  0  0  0
    3.6700   -5.4580    4.5730 C   0  0  0  0  0  3  0  0  0  0  0  0
    3.0300   -4.8340    5.6820 C   0  0  0  0  0  3  0  0  0  0  0  0
    3.0100   -3.4500    5.6020 C   0  0  0  0  0  0  0  0  0  0  0  0
    3.7230   -2.9410    4.1190 S   0  0  0  0  0  0  0  0  0  0  0  0
    7.0320   -4.0130    3.4140 C   0  0  0  0  0  1  0  0  0  0  0  0
    6.2070   -4.5150    2.2600 C   0  0  0  0  0  0  0  0  0  0  0  0
    6.8250   -4.7330    1.0170 C   0  0  0  0  0  3  0  0  0  0  0  0
    6.0920   -5.2020   -0.0730 C   0  0  0  0  0  3  0  0  0  0  0  0
    4.7310   -5.4590    0.0610 C   0  0  0  0  0  3  0  0  0  0  0  0
    4.1020   -5.2420    1.2870 C   0  0  0  0  0  3  0  0  0  0  0  0
    4.8260   -4.7710    2.3940 C   0  0  0  0  0  0  0  0  0  0  0  0
    4.3720   -1.2440    7.0770 N   0  0  0  0  0  4  0  0  0  0  0  0
    5.5120   -1.6740    7.7160 C   0  0  0  0  0  0  0  0  0  0  0  0
    6.5610   -1.0340    7.5910 O   0  0  0  0  0  0  0  0  0  0  0  0
    4.5530   -0.4850    6.4340 H   0  0  0  0  0  0  0  0  0  0  0  0
    5.5660   -2.9510    8.4590 C   0  0  0  0  0  0  0  0  0  0  0  0
    6.7410   -3.7090    8.4080 C   0  0  0  0  0  3  0  0  0  0  0  0
    6.7940   -4.9590    9.0270 C   0  0  0  0  0  3  0  0  0  0  0  0
    5.6680   -5.4600    9.6810 C   0  0  0  0  0  3  0  0  0  0  0  0
    4.4880   -4.7160    9.7130 C   0  0  0  0  0  3  0  0  0  0  0  0
    4.4290   -3.4670    9.0900 C   0  0  0  0  0  3  0  0  0  0  0  0
    2.0480   -0.8410    8.2110 C   0  0  0  0  0  0  0  0  0  0  0  0
    2.2750   -1.0090    9.4460 O   0  0  0  0  0  1  0  0  0  0  0  0
    1.1190   -0.2090    7.6330 O   0  0  0  0  0  0  0  0  0  0  0  0
  1  2  1  0  0  0  0
  2 25  1  0  0  0  0
  3  7  1  0  0  0  0
  3  4  2  0  0  0  0
  4  5  1  0  0  0  0
  6  5  2  0  0  0  0
  6  1  1  0  0  0  0
  7  6  1  0  0  0  0
  9 14  1  0  0  0  0
  9  8  1  0  0  0  0
 10  9  2  0  0  0  0
 11 12  2  0  0  0  0
 11 10  1  0  0  0  0
 12 13  1  0  0  0  0
 13 14  2  0  0  0  0
 14  3  1  0  0  0  0
 15  2  2  3  0  0  0
 15 16  1  0  0  0  0
 16 19  1  0  0  0  0
 17 16  2  0  0  0  0
 18 15  1  0  0  0  0
 19 24  1  0  0  0  0
 20 19  2  0  0  0  0
 20 21  1  0  0  0  0
 21 22  2  0  0  0  0
 22 23  1  0  0  0  0
 24 23  2  0  0  0  0
 25 26  1  0  0  0  0
 27 25  2  0  0  0  0
M  END
>  <minimizedAffinity>
-2.1323278

$$$$
