MODEL 1
REMARK VINA RESULT:      -3.6      0.000      0.000
REMARK  Name = 323032
REMARK  6 active torsions:
REMARK  status: ('A' for Active; 'I' for Inactive)
REMARK    1  A    between atoms: C_3  and  O_5
REMARK    2  A    between atoms: O_5  and  C_8
REMARK    3  A    between atoms: C_14  and  C_15
REMARK    4  A    between atoms: CA_16  and  N_17
REMARK    5  A    between atoms: CA_16  and  C_18
REMARK    6  A    between atoms: C_19  and  C_23
REMARK                            x       y       z     vdW  Elec       q    Type
REMARK                         _______ _______ _______ _____ _____    ______ ____
ROOT
ATOM      1  C   UNL     1      20.469  42.570  43.323  0.00  0.00    +0.000 C 
ATOM      2  CA  UNL     1      19.201  42.172  43.110  0.00  0.00    +0.000 C 
ENDROOT
BRANCH   1   8
ATOM      3  C   UNL     1      22.576  41.295  46.766  0.00  0.00    +0.000 A 
ATOM      4  C   UNL     1      22.093  42.602  46.707  0.00  0.00    +0.000 A 
ATOM      5  C   UNL     1      22.594  40.503  45.614  0.00  0.00    +0.000 A 
ATOM      6  C   UNL     1      21.484  43.060  45.536  0.00  0.00    +0.000 A 
ATOM      7  C   UNL     1      21.967  40.953  44.452  0.00  0.00    +0.000 A 
ATOM      8  C   UNL     1      21.365  42.217  44.427  0.00  0.00    +0.000 A 
BRANCH   3   9
ATOM      9  O   UNL     1      22.989  40.823  47.994  0.00  0.00    +0.000 OA
BRANCH   9  12
ATOM     10 BR   UNL     1      25.809  40.699  46.746  0.00  0.00    +0.000 Br
ATOM     11  C   UNL     1      25.228  41.617  48.301  0.00  0.00    +0.000 A 
ATOM     12  C   UNL     1      23.890  41.597  48.710  0.00  0.00    +0.000 A 
ATOM     13  C   UNL     1      26.181  42.327  49.041  0.00  0.00    +0.000 A 
ATOM     14  C   UNL     1      23.507  42.374  49.815  0.00  0.00    +0.000 A 
ATOM     15  C   UNL     1      25.799  43.035  50.181  0.00  0.00    +0.000 A 
ATOM     16  C   UNL     1      24.460  43.069  50.561  0.00  0.00    +0.000 A 
ENDBRANCH   9  12
ENDBRANCH   3   9
ENDBRANCH   1   8
BRANCH   2  17
ATOM     17  N   UNL     1      18.509  41.220  43.835  0.00  0.00    +0.000 N 
ATOM     18  C   UNL     1      17.914  41.456  45.067  0.00  0.00    +0.000 C 
ATOM     19  O   UNL     1      17.999  42.523  45.666  0.00  0.00    +0.000 OA
ATOM     20  H   UNL     1      18.433  40.316  43.453  0.00  0.00    +0.000 HD
BRANCH  18  21
ATOM     21  C   UNL     1      17.259  40.215  45.700  0.00  0.00    +0.000 C 
ATOM     22  C   UNL     1      16.720  39.281  44.586  0.00  0.00    +0.000 C 
ATOM     23  C   UNL     1      16.114  40.635  46.652  0.00  0.00    +0.000 C 
ATOM     24  C   UNL     1      18.284  39.402  46.536  0.00  0.00    +0.000 C 
ATOM     25  C   UNL     1      16.031  38.054  45.194  0.00  0.00    +0.000 C 
ATOM     26  C   UNL     1      15.431  39.393  47.248  0.00  0.00    +0.000 C 
ATOM     27  C   UNL     1      17.619  38.150  47.144  0.00  0.00    +0.000 C 
ATOM     28  C   UNL     1      14.881  38.528  46.101  0.00  0.00    +0.000 C 
ATOM     29  C   UNL     1      17.059  37.265  46.020  0.00  0.00    +0.000 C 
ATOM     30  C   UNL     1      16.457  38.580  48.054  0.00  0.00    +0.000 C 
ENDBRANCH  18  21
ENDBRANCH   2  17
BRANCH   2  31
ATOM     31  C   UNL     1      18.464  42.895  42.023  0.00  0.00    +0.000 C 
ATOM     32  O   UNL     1      18.691  44.034  41.649  0.00  0.00    +0.000 OA
ATOM     33  OXT UNL     1      17.473  42.130  41.509  0.00  0.00    +0.000 OA
ENDBRANCH   2  31
TORSDOF 6
ENDMDL
MODEL 2
REMARK VINA RESULT:      -2.3      2.416      3.809
REMARK  Name = 323032
REMARK  6 active torsions:
REMARK  status: ('A' for Active; 'I' for Inactive)
REMARK    1  A    between atoms: C_3  and  O_5
REMARK    2  A    between atoms: O_5  and  C_8
REMARK    3  A    between atoms: C_14  and  C_15
REMARK    4  A    between atoms: CA_16  and  N_17
REMARK    5  A    between atoms: CA_16  and  C_18
REMARK    6  A    between atoms: C_19  and  C_23
REMARK                            x       y       z     vdW  Elec       q    Type
REMARK                         _______ _______ _______ _____ _____    ______ ____
ROOT
ATOM      1  C   UNL     1      20.618  38.423  44.089  0.00  0.00    +0.000 C 
ATOM      2  CA  UNL     1      19.368  38.821  44.391  0.00  0.00    +0.000 C 
ENDROOT
BRANCH   1   8
ATOM      3  C   UNL     1      24.035  40.380  45.641  0.00  0.00    +0.000 A 
ATOM      4  C   UNL     1      23.158  41.087  44.820  0.00  0.00    +0.000 A 
ATOM      5  C   UNL     1      23.933  38.989  45.741  0.00  0.00    +0.000 A 
ATOM      6  C   UNL     1      22.083  40.423  44.224  0.00  0.00    +0.000 A 
ATOM      7  C   UNL     1      22.847  38.330  45.164  0.00  0.00    +0.000 A 
ATOM      8  C   UNL     1      21.890  39.056  44.444  0.00  0.00    +0.000 A 
BRANCH   3   9
ATOM      9  O   UNL     1      24.960  41.107  46.362  0.00  0.00    +0.000 OA
BRANCH   9  12
ATOM     10 BR   UNL     1      27.345  41.598  48.259  0.00  0.00    +0.000 Br
ATOM     11  C   UNL     1      25.498  41.921  48.550  0.00  0.00    +0.000 A 
ATOM     12  C   UNL     1      24.543  41.672  47.557  0.00  0.00    +0.000 A 
ATOM     13  C   UNL     1      25.106  42.423  49.796  0.00  0.00    +0.000 A 
ATOM     14  C   UNL     1      23.205  42.022  47.801  0.00  0.00    +0.000 A 
ATOM     15  C   UNL     1      23.761  42.695  50.051  0.00  0.00    +0.000 A 
ATOM     16  C   UNL     1      22.813  42.507  49.050  0.00  0.00    +0.000 A 
ENDBRANCH   9  12
ENDBRANCH   3   9
ENDBRANCH   1   8
BRANCH   2  17
ATOM     17  N   UNL     1      19.022  39.862  45.232  0.00  0.00    +0.000 N 
ATOM     18  C   UNL     1      18.782  41.162  44.807  0.00  0.00    +0.000 C 
ATOM     19  O   UNL     1      18.917  41.531  43.645  0.00  0.00    +0.000 OA
ATOM     20  H   UNL     1      18.939  39.670  46.193  0.00  0.00    +0.000 HD
BRANCH  18  21
ATOM     21  C   UNL     1      18.476  42.152  45.945  0.00  0.00    +0.000 C 
ATOM     22  C   UNL     1      18.297  41.380  47.278  0.00  0.00    +0.000 C 
ATOM     23  C   UNL     1      17.204  42.971  45.622  0.00  0.00    +0.000 C 
ATOM     24  C   UNL     1      19.640  43.160  46.143  0.00  0.00    +0.000 C 
ATOM     25  C   UNL     1      17.956  42.343  48.421  0.00  0.00    +0.000 C 
ATOM     26  C   UNL     1      16.873  43.927  46.780  0.00  0.00    +0.000 C 
ATOM     27  C   UNL     1      19.329  44.130  47.302  0.00  0.00    +0.000 C 
ATOM     28  C   UNL     1      16.666  43.102  48.063  0.00  0.00    +0.000 C 
ATOM     29  C   UNL     1      19.116  43.334  48.598  0.00  0.00    +0.000 C 
ATOM     30  C   UNL     1      18.040  44.906  46.986  0.00  0.00    +0.000 C 
ENDBRANCH  18  21
ENDBRANCH   2  17
BRANCH   2  31
ATOM     31  C   UNL     1      18.263  38.098  43.681  0.00  0.00    +0.000 C 
ATOM     32  O   UNL     1      18.202  36.893  43.506  0.00  0.00    +0.000 OA
ATOM     33  OXT UNL     1      17.329  38.963  43.220  0.00  0.00    +0.000 OA
ENDBRANCH   2  31
TORSDOF 6
ENDMDL
MODEL 3
REMARK VINA RESULT:      -2.3      2.925      6.725
REMARK  Name = 323032
REMARK  6 active torsions:
REMARK  status: ('A' for Active; 'I' for Inactive)
REMARK    1  A    between atoms: C_3  and  O_5
REMARK    2  A    between atoms: O_5  and  C_8
REMARK    3  A    between atoms: C_14  and  C_15
REMARK    4  A    between atoms: CA_16  and  N_17
REMARK    5  A    between atoms: CA_16  and  C_18
REMARK    6  A    between atoms: C_19  and  C_23
REMARK                            x       y       z     vdW  Elec       q    Type
REMARK                         _______ _______ _______ _____ _____    ______ ____
ROOT
ATOM      1  C   UNL     1      23.752  40.937  46.028  0.00  0.00    +0.000 C 
ATOM      2  CA  UNL     1      23.375  41.808  46.982  0.00  0.00    +0.000 C 
ENDROOT
BRANCH   1   8
ATOM      3  C   UNL     1      20.898  39.162  43.454  0.00  0.00    +0.000 A 
ATOM      4  C   UNL     1      21.600  38.359  44.352  0.00  0.00    +0.000 A 
ATOM      5  C   UNL     1      21.308  40.479  43.225  0.00  0.00    +0.000 A 
ATOM      6  C   UNL     1      22.613  38.920  45.134  0.00  0.00    +0.000 A 
ATOM      7  C   UNL     1      22.305  41.045  44.022  0.00  0.00    +0.000 A 
ATOM      8  C   UNL     1      22.926  40.277  45.014  0.00  0.00    +0.000 A 
BRANCH   3   9
ATOM      9  O   UNL     1      19.784  38.619  42.849  0.00  0.00    +0.000 OA
BRANCH   9  12
ATOM     10 BR   UNL     1      18.046  41.170  42.864  0.00  0.00    +0.000 Br
ATOM     11  C   UNL     1      17.771  39.529  43.775  0.00  0.00    +0.000 A 
ATOM     12  C   UNL     1      18.648  38.449  43.627  0.00  0.00    +0.000 A 
ATOM     13  C   UNL     1      16.653  39.420  44.611  0.00  0.00    +0.000 A 
ATOM     14  C   UNL     1      18.337  37.232  44.253  0.00  0.00    +0.000 A 
ATOM     15  C   UNL     1      16.396  38.226  45.287  0.00  0.00    +0.000 A 
ATOM     16  C   UNL     1      17.231  37.129  45.098  0.00  0.00    +0.000 A 
ENDBRANCH   9  12
ENDBRANCH   3   9
ENDBRANCH   1   8
BRANCH   2  17
ATOM     17  N   UNL     1      22.123  42.376  47.123  0.00  0.00    +0.000 N 
ATOM     18  C   UNL     1      20.950  41.652  47.287  0.00  0.00    +0.000 C 
ATOM     19  O   UNL     1      20.901  40.426  47.258  0.00  0.00    +0.000 OA
ATOM     20  H   UNL     1      22.059  43.358  47.108  0.00  0.00    +0.000 HD
BRANCH  18  21
ATOM     21  C   UNL     1      19.678  42.515  47.357  0.00  0.00    +0.000 C 
ATOM     22  C   UNL     1      18.445  41.667  46.950  0.00  0.00    +0.000 C 
ATOM     23  C   UNL     1      19.811  43.750  46.435  0.00  0.00    +0.000 C 
ATOM     24  C   UNL     1      19.430  43.037  48.798  0.00  0.00    +0.000 C 
ATOM     25  C   UNL     1      17.169  42.516  46.979  0.00  0.00    +0.000 C 
ATOM     26  C   UNL     1      18.521  44.586  46.470  0.00  0.00    +0.000 C 
ATOM     27  C   UNL     1      18.139  43.880  48.857  0.00  0.00    +0.000 C 
ATOM     28  C   UNL     1      17.343  43.706  46.018  0.00  0.00    +0.000 C 
ATOM     29  C   UNL     1      16.943  43.026  48.410  0.00  0.00    +0.000 C 
ATOM     30  C   UNL     1      18.270  45.079  47.904  0.00  0.00    +0.000 C 
ENDBRANCH  18  21
ENDBRANCH   2  17
BRANCH   2  31
ATOM     31  C   UNL     1      24.407  42.122  48.024  0.00  0.00    +0.000 C 
ATOM     32  O   UNL     1      25.588  42.339  47.809  0.00  0.00    +0.000 OA
ATOM     33  OXT UNL     1      23.869  42.110  49.266  0.00  0.00    +0.000 OA
ENDBRANCH   2  31
TORSDOF 6
ENDMDL
MODEL 4
REMARK VINA RESULT:      -2.2      3.070      8.069
REMARK  Name = 323032
REMARK  6 active torsions:
REMARK  status: ('A' for Active; 'I' for Inactive)
REMARK    1  A    between atoms: C_3  and  O_5
REMARK    2  A    between atoms: O_5  and  C_8
REMARK    3  A    between atoms: C_14  and  C_15
REMARK    4  A    between atoms: CA_16  and  N_17
REMARK    5  A    between atoms: CA_16  and  C_18
REMARK    6  A    between atoms: C_19  and  C_23
REMARK                            x       y       z     vdW  Elec       q    Type
REMARK                         _______ _______ _______ _____ _____    ______ ____
ROOT
ATOM      1  C   UNL     1      23.179  38.670  44.651  0.00  0.00    +0.000 C 
ATOM      2  CA  UNL     1      24.084  38.595  45.644  0.00  0.00    +0.000 C 
ENDROOT
BRANCH   1   8
ATOM      3  C   UNL     1      20.338  41.733  43.976  0.00  0.00    +0.000 A 
ATOM      4  C   UNL     1      20.335  40.607  43.154  0.00  0.00    +0.000 A 
ATOM      5  C   UNL     1      21.414  41.970  44.836  0.00  0.00    +0.000 A 
ATOM      6  C   UNL     1      21.330  39.639  43.307  0.00  0.00    +0.000 A 
ATOM      7  C   UNL     1      22.396  40.992  45.003  0.00  0.00    +0.000 A 
ATOM      8  C   UNL     1      22.328  39.800  44.273  0.00  0.00    +0.000 A 
BRANCH   3   9
ATOM      9  O   UNL     1      19.235  42.561  43.927  0.00  0.00    +0.000 OA
BRANCH   9  12
ATOM     10 BR   UNL     1      16.847  40.607  43.910  0.00  0.00    +0.000 Br
ATOM     11  C   UNL     1      17.326  41.900  45.213  0.00  0.00    +0.000 A 
ATOM     12  C   UNL     1      18.475  42.687  45.080  0.00  0.00    +0.000 A 
ATOM     13  C   UNL     1      16.493  42.051  46.328  0.00  0.00    +0.000 A 
ATOM     14  C   UNL     1      18.825  43.558  46.124  0.00  0.00    +0.000 A 
ATOM     15  C   UNL     1      16.814  42.975  47.324  0.00  0.00    +0.000 A 
ATOM     16  C   UNL     1      17.986  43.718  47.228  0.00  0.00    +0.000 A 
ENDBRANCH   9  12
ENDBRANCH   3   9
ENDBRANCH   1   8
BRANCH   2  17
ATOM     17  N   UNL     1      24.505  39.638  46.449  0.00  0.00    +0.000 N 
ATOM     18  C   UNL     1      23.949  39.945  47.684  0.00  0.00    +0.000 C 
ATOM     19  O   UNL     1      22.982  39.356  48.157  0.00  0.00    +0.000 OA
ATOM     20  H   UNL     1      25.246  40.199  46.126  0.00  0.00    +0.000 HD
BRANCH  18  21
ATOM     21  C   UNL     1      24.551  41.193  48.355  0.00  0.00    +0.000 C 
ATOM     22  C   UNL     1      23.987  42.472  47.683  0.00  0.00    +0.000 C 
ATOM     23  C   UNL     1      26.094  41.169  48.257  0.00  0.00    +0.000 C 
ATOM     24  C   UNL     1      24.182  41.255  49.861  0.00  0.00    +0.000 C 
ATOM     25  C   UNL     1      24.599  43.729  48.312  0.00  0.00    +0.000 C 
ATOM     26  C   UNL     1      26.691  42.438  48.886  0.00  0.00    +0.000 C 
ATOM     27  C   UNL     1      24.771  42.523  50.514  0.00  0.00    +0.000 C 
ATOM     28  C   UNL     1      26.128  43.669  48.154  0.00  0.00    +0.000 C 
ATOM     29  C   UNL     1      24.227  43.771  49.802  0.00  0.00    +0.000 C 
ATOM     30  C   UNL     1      26.301  42.506  50.371  0.00  0.00    +0.000 C 
ENDBRANCH  18  21
ENDBRANCH   2  17
BRANCH   2  31
ATOM     31  C   UNL     1      24.622  37.226  45.936  0.00  0.00    +0.000 C 
ATOM     32  O   UNL     1      25.613  36.730  45.427  0.00  0.00    +0.000 OA
ATOM     33  OXT UNL     1      23.846  36.576  46.835  0.00  0.00    +0.000 OA
ENDBRANCH   2  31
TORSDOF 6
ENDMDL
MODEL 5
REMARK VINA RESULT:      -2.2      2.413      3.924
REMARK  Name = 323032
REMARK  6 active torsions:
REMARK  status: ('A' for Active; 'I' for Inactive)
REMARK    1  A    between atoms: C_3  and  O_5
REMARK    2  A    between atoms: O_5  and  C_8
REMARK    3  A    between atoms: C_14  and  C_15
REMARK    4  A    between atoms: CA_16  and  N_17
REMARK    5  A    between atoms: CA_16  and  C_18
REMARK    6  A    between atoms: C_19  and  C_23
REMARK                            x       y       z     vdW  Elec       q    Type
REMARK                         _______ _______ _______ _____ _____    ______ ____
ROOT
ATOM      1  C   UNL     1      20.564  38.410  44.063  0.00  0.00    +0.000 C 
ATOM      2  CA  UNL     1      19.317  38.817  44.366  0.00  0.00    +0.000 C 
ENDROOT
BRANCH   1   8
ATOM      3  C   UNL     1      23.986  40.361  45.612  0.00  0.00    +0.000 A 
ATOM      4  C   UNL     1      23.144  41.050  44.740  0.00  0.00    +0.000 A 
ATOM      5  C   UNL     1      23.851  38.978  45.769  0.00  0.00    +0.000 A 
ATOM      6  C   UNL     1      22.069  40.383  44.148  0.00  0.00    +0.000 A 
ATOM      7  C   UNL     1      22.764  38.317  45.194  0.00  0.00    +0.000 A 
ATOM      8  C   UNL     1      21.841  39.031  44.421  0.00  0.00    +0.000 A 
BRANCH   3   9
ATOM      9  O   UNL     1      24.909  41.098  46.323  0.00  0.00    +0.000 OA
BRANCH   9  12
ATOM     10 BR   UNL     1      27.300  41.583  48.214  0.00  0.00    +0.000 Br
ATOM     11  C   UNL     1      25.455  41.909  48.510  0.00  0.00    +0.000 A 
ATOM     12  C   UNL     1      24.497  41.663  47.520  0.00  0.00    +0.000 A 
ATOM     13  C   UNL     1      25.067  42.410  49.759  0.00  0.00    +0.000 A 
ATOM     14  C   UNL     1      23.160  42.015  47.768  0.00  0.00    +0.000 A 
ATOM     15  C   UNL     1      23.723  42.685  50.017  0.00  0.00    +0.000 A 
ATOM     16  C   UNL     1      22.773  42.500  49.018  0.00  0.00    +0.000 A 
ENDBRANCH   9  12
ENDBRANCH   3   9
ENDBRANCH   1   8
BRANCH   2  17
ATOM     17  N   UNL     1      18.978  39.858  45.210  0.00  0.00    +0.000 N 
ATOM     18  C   UNL     1      18.787  41.169  44.796  0.00  0.00    +0.000 C 
ATOM     19  O   UNL     1      18.963  41.547  43.641  0.00  0.00    +0.000 OA
ATOM     20  H   UNL     1      18.865  39.657  46.167  0.00  0.00    +0.000 HD
BRANCH  18  21
ATOM     21  C   UNL     1      18.480  42.154  45.937  0.00  0.00    +0.000 C 
ATOM     22  C   UNL     1      19.656  43.151  46.100  0.00  0.00    +0.000 C 
ATOM     23  C   UNL     1      18.233  41.391  47.259  0.00  0.00    +0.000 C 
ATOM     24  C   UNL     1      17.203  42.986  45.636  0.00  0.00    +0.000 C 
ATOM     25  C   UNL     1      19.389  44.122  47.256  0.00  0.00    +0.000 C 
ATOM     26  C   UNL     1      17.973  42.378  48.408  0.00  0.00    +0.000 C 
ATOM     27  C   UNL     1      16.922  43.985  46.778  0.00  0.00    +0.000 C 
ATOM     28  C   UNL     1      19.188  43.311  48.549  0.00  0.00    +0.000 C 
ATOM     29  C   UNL     1      18.122  44.931  46.942  0.00  0.00    +0.000 C 
ATOM     30  C   UNL     1      16.722  43.214  48.092  0.00  0.00    +0.000 C 
ENDBRANCH  18  21
ENDBRANCH   2  17
BRANCH   2  31
ATOM     31  C   UNL     1      18.207  38.106  43.652  0.00  0.00    +0.000 C 
ATOM     32  O   UNL     1      18.137  36.902  43.469  0.00  0.00    +0.000 OA
ATOM     33  OXT UNL     1      17.277  38.980  43.198  0.00  0.00    +0.000 OA
ENDBRANCH   2  31
TORSDOF 6
ENDMDL
MODEL 6
REMARK VINA RESULT:      -1.1      1.365      2.248
REMARK  Name = 323032
REMARK  6 active torsions:
REMARK  status: ('A' for Active; 'I' for Inactive)
REMARK    1  A    between atoms: C_3  and  O_5
REMARK    2  A    between atoms: O_5  and  C_8
REMARK    3  A    between atoms: C_14  and  C_15
REMARK    4  A    between atoms: CA_16  and  N_17
REMARK    5  A    between atoms: CA_16  and  C_18
REMARK    6  A    between atoms: C_19  and  C_23
REMARK                            x       y       z     vdW  Elec       q    Type
REMARK                         _______ _______ _______ _____ _____    ______ ____
ROOT
ATOM      1  C   UNL     1      20.434  42.649  43.294  0.00  0.00    +0.000 C 
ATOM      2  CA  UNL     1      19.150  42.266  43.163  0.00  0.00    +0.000 C 
ENDROOT
BRANCH   1   8
ATOM      3  C   UNL     1      22.695  41.483  46.677  0.00  0.00    +0.000 A 
ATOM      4  C   UNL     1      21.951  42.662  46.726  0.00  0.00    +0.000 A 
ATOM      5  C   UNL     1      22.899  40.836  45.455  0.00  0.00    +0.000 A 
ATOM      6  C   UNL     1      21.282  43.104  45.582  0.00  0.00    +0.000 A 
ATOM      7  C   UNL     1      22.213  41.266  44.318  0.00  0.00    +0.000 A 
ATOM      8  C   UNL     1      21.363  42.375  44.393  0.00  0.00    +0.000 A 
BRANCH   3   9
ATOM      9  O   UNL     1      23.173  40.981  47.869  0.00  0.00    +0.000 OA
BRANCH   9  12
ATOM     10 BR   UNL     1      23.445  42.892  50.277  0.00  0.00    +0.000 Br
ATOM     11  C   UNL     1      24.806  42.098  49.220  0.00  0.00    +0.000 A 
ATOM     12  C   UNL     1      24.505  41.216  48.176  0.00  0.00    +0.000 A 
ATOM     13  C   UNL     1      26.137  42.417  49.513  0.00  0.00    +0.000 A 
ATOM     14  C   UNL     1      25.560  40.587  47.495  0.00  0.00    +0.000 A 
ATOM     15  C   UNL     1      27.174  41.842  48.777  0.00  0.00    +0.000 A 
ATOM     16  C   UNL     1      26.886  40.918  47.777  0.00  0.00    +0.000 A 
ENDBRANCH   9  12
ENDBRANCH   3   9
ENDBRANCH   1   8
BRANCH   2  17
ATOM     17  N   UNL     1      18.465  41.401  43.995  0.00  0.00    +0.000 N 
ATOM     18  C   UNL     1      18.710  40.037  44.077  0.00  0.00    +0.000 C 
ATOM     19  O   UNL     1      19.521  39.451  43.366  0.00  0.00    +0.000 OA
ATOM     20  H   UNL     1      17.759  41.776  44.569  0.00  0.00    +0.000 HD
BRANCH  18  21
ATOM     21  C   UNL     1      17.769  39.281  45.032  0.00  0.00    +0.000 C 
ATOM     22  C   UNL     1      18.133  39.619  46.501  0.00  0.00    +0.000 C 
ATOM     23  C   UNL     1      17.863  37.757  44.790  0.00  0.00    +0.000 C 
ATOM     24  C   UNL     1      16.290  39.697  44.811  0.00  0.00    +0.000 C 
ATOM     25  C   UNL     1      17.231  38.850  47.473  0.00  0.00    +0.000 C 
ATOM     26  C   UNL     1      16.958  37.001  45.776  0.00  0.00    +0.000 C 
ATOM     27  C   UNL     1      15.362  38.949  45.791  0.00  0.00    +0.000 C 
ATOM     28  C   UNL     1      17.392  37.342  47.213  0.00  0.00    +0.000 C 
ATOM     29  C   UNL     1      15.773  39.271  47.236  0.00  0.00    +0.000 C 
ATOM     30  C   UNL     1      15.498  37.435  45.568  0.00  0.00    +0.000 C 
ENDBRANCH  18  21
ENDBRANCH   2  17
BRANCH   2  31
ATOM     31  C   UNL     1      18.389  42.907  42.041  0.00  0.00    +0.000 C 
ATOM     32  O   UNL     1      18.581  44.029  41.604  0.00  0.00    +0.000 OA
ATOM     33  OXT UNL     1      17.419  42.086  41.574  0.00  0.00    +0.000 OA
ENDBRANCH   2  31
TORSDOF 6
ENDMDL
MODEL 7
REMARK VINA RESULT:      -1.1      3.052      6.822
REMARK  Name = 323032
REMARK  6 active torsions:
REMARK  status: ('A' for Active; 'I' for Inactive)
REMARK    1  A    between atoms: C_3  and  O_5
REMARK    2  A    between atoms: O_5  and  C_8
REMARK    3  A    between atoms: C_14  and  C_15
REMARK    4  A    between atoms: CA_16  and  N_17
REMARK    5  A    between atoms: CA_16  and  C_18
REMARK    6  A    between atoms: C_19  and  C_23
REMARK                            x       y       z     vdW  Elec       q    Type
REMARK                         _______ _______ _______ _____ _____    ______ ____
ROOT
ATOM      1  C   UNL     1      23.808  40.940  46.730  0.00  0.00    +0.000 C 
ATOM      2  CA  UNL     1      23.302  41.744  47.684  0.00  0.00    +0.000 C 
ENDROOT
BRANCH   1   8
ATOM      3  C   UNL     1      21.354  39.480  43.606  0.00  0.00    +0.000 A 
ATOM      4  C   UNL     1      21.804  38.599  44.588  0.00  0.00    +0.000 A 
ATOM      5  C   UNL     1      21.908  40.760  43.506  0.00  0.00    +0.000 A 
ATOM      6  C   UNL     1      22.694  39.052  45.565  0.00  0.00    +0.000 A 
ATOM      7  C   UNL     1      22.780  41.218  44.495  0.00  0.00    +0.000 A 
ATOM      8  C   UNL     1      23.136  40.377  45.557  0.00  0.00    +0.000 A 
BRANCH   3   9
ATOM      9  O   UNL     1      20.333  39.051  42.784  0.00  0.00    +0.000 OA
BRANCH   9  12
ATOM     10 BR   UNL     1      18.340  37.283  44.342  0.00  0.00    +0.000 Br
ATOM     11  C   UNL     1      18.066  38.988  43.557  0.00  0.00    +0.000 A 
ATOM     12  C   UNL     1      19.100  39.675  42.911  0.00  0.00    +0.000 A 
ATOM     13  C   UNL     1      16.788  39.553  43.641  0.00  0.00    +0.000 A 
ATOM     14  C   UNL     1      18.858  40.973  42.435  0.00  0.00    +0.000 A 
ATOM     15  C   UNL     1      16.542  40.815  43.096  0.00  0.00    +0.000 A 
ATOM     16  C   UNL     1      17.580  41.530  42.506  0.00  0.00    +0.000 A 
ENDBRANCH   9  12
ENDBRANCH   3   9
ENDBRANCH   1   8
BRANCH   2  17
ATOM     17  N   UNL     1      22.048  42.328  47.681  0.00  0.00    +0.000 N 
ATOM     18  C   UNL     1      20.859  41.625  47.539  0.00  0.00    +0.000 C 
ATOM     19  O   UNL     1      20.807  40.416  47.336  0.00  0.00    +0.000 OA
ATOM     20  H   UNL     1      21.995  43.304  47.789  0.00  0.00    +0.000 HD
BRANCH  18  21
ATOM     21  C   UNL     1      19.602  42.511  47.504  0.00  0.00    +0.000 C 
ATOM     22  C   UNL     1      19.802  43.665  46.487  0.00  0.00    +0.000 C 
ATOM     23  C   UNL     1      19.301  43.079  48.911  0.00  0.00    +0.000 C 
ATOM     24  C   UNL     1      18.355  41.703  47.053  0.00  0.00    +0.000 C 
ATOM     25  C   UNL     1      18.574  44.583  46.460  0.00  0.00    +0.000 C 
ATOM     26  C   UNL     1      18.072  44.002  48.865  0.00  0.00    +0.000 C 
ATOM     27  C   UNL     1      17.108  42.610  47.000  0.00  0.00    +0.000 C 
ATOM     28  C   UNL     1      18.345  45.147  47.874  0.00  0.00    +0.000 C 
ATOM     29  C   UNL     1      17.352  43.765  46.017  0.00  0.00    +0.000 C 
ATOM     30  C   UNL     1      16.847  43.201  48.395  0.00  0.00    +0.000 C 
ENDBRANCH  18  21
ENDBRANCH   2  17
BRANCH   2  31
ATOM     31  C   UNL     1      24.169  41.955  48.888  0.00  0.00    +0.000 C 
ATOM     32  O   UNL     1      23.789  42.363  49.973  0.00  0.00    +0.000 OA
ATOM     33  OXT UNL     1      25.462  41.657  48.620  0.00  0.00    +0.000 OA
ENDBRANCH   2  31
TORSDOF 6
ENDMDL
MODEL 8
REMARK VINA RESULT:      -0.9      3.043      6.600
REMARK  Name = 323032
REMARK  6 active torsions:
REMARK  status: ('A' for Active; 'I' for Inactive)
REMARK    1  A    between atoms: C_3  and  O_5
REMARK    2  A    between atoms: O_5  and  C_8
REMARK    3  A    between atoms: C_14  and  C_15
REMARK    4  A    between atoms: CA_16  and  N_17
REMARK    5  A    between atoms: CA_16  and  C_18
REMARK    6  A    between atoms: C_19  and  C_23
REMARK                            x       y       z     vdW  Elec       q    Type
REMARK                         _______ _______ _______ _____ _____    ______ ____
ROOT
ATOM      1  C   UNL     1      24.307  41.216  47.666  0.00  0.00    +0.000 C 
ATOM      2  CA  UNL     1      23.585  42.060  48.425  0.00  0.00    +0.000 C 
ENDROOT
BRANCH   1   8
ATOM      3  C   UNL     1      22.543  39.256  44.355  0.00  0.00    +0.000 A 
ATOM      4  C   UNL     1      22.737  38.550  45.542  0.00  0.00    +0.000 A 
ATOM      5  C   UNL     1      23.151  40.501  44.175  0.00  0.00    +0.000 A 
ATOM      6  C   UNL     1      23.408  39.159  46.605  0.00  0.00    +0.000 A 
ATOM      7  C   UNL     1      23.801  41.118  45.244  0.00  0.00    +0.000 A 
ATOM      8  C   UNL     1      23.888  40.466  46.480  0.00  0.00    +0.000 A 
BRANCH   3   9
ATOM      9  O   UNL     1      21.711  38.695  43.409  0.00  0.00    +0.000 OA
BRANCH   9  12
ATOM     10 BR   UNL     1      20.793  41.618  43.035  0.00  0.00    +0.000 Br
ATOM     11  C   UNL     1      19.768  40.093  43.509  0.00  0.00    +0.000 A 
ATOM     12  C   UNL     1      20.343  38.820  43.600  0.00  0.00    +0.000 A 
ATOM     13  C   UNL     1      18.404  40.271  43.768  0.00  0.00    +0.000 A 
ATOM     14  C   UNL     1      19.513  37.718  43.861  0.00  0.00    +0.000 A 
ATOM     15  C   UNL     1      17.604  39.176  44.100  0.00  0.00    +0.000 A 
ATOM     16  C   UNL     1      18.156  37.900  44.134  0.00  0.00    +0.000 A 
ENDBRANCH   9  12
ENDBRANCH   3   9
ENDBRANCH   1   8
BRANCH   2  17
ATOM     17  N   UNL     1      22.304  42.508  48.160  0.00  0.00    +0.000 N 
ATOM     18  C   UNL     1      21.243  41.681  47.816  0.00  0.00    +0.000 C 
ATOM     19  O   UNL     1      21.354  40.470  47.650  0.00  0.00    +0.000 OA
ATOM     20  H   UNL     1      22.133  43.475  48.219  0.00  0.00    +0.000 HD
BRANCH  18  21
ATOM     21  C   UNL     1      19.934  42.429  47.506  0.00  0.00    +0.000 C 
ATOM     22  C   UNL     1      18.848  41.419  47.053  0.00  0.00    +0.000 C 
ATOM     23  C   UNL     1      20.166  43.497  46.412  0.00  0.00    +0.000 C 
ATOM     24  C   UNL     1      19.392  43.161  48.764  0.00  0.00    +0.000 C 
ATOM     25  C   UNL     1      17.544  42.145  46.705  0.00  0.00    +0.000 C 
ATOM     26  C   UNL     1      18.848  44.211  46.071  0.00  0.00    +0.000 C 
ATOM     27  C   UNL     1      18.068  43.886  48.444  0.00  0.00    +0.000 C 
ATOM     28  C   UNL     1      17.826  43.167  45.589  0.00  0.00    +0.000 C 
ATOM     29  C   UNL     1      17.027  42.866  47.958  0.00  0.00    +0.000 C 
ATOM     30  C   UNL     1      18.306  44.913  47.326  0.00  0.00    +0.000 C 
ENDBRANCH  18  21
ENDBRANCH   2  17
BRANCH   2  31
ATOM     31  C   UNL     1      24.221  42.486  49.714  0.00  0.00    +0.000 C 
ATOM     32  O   UNL     1      23.648  43.034  50.641  0.00  0.00    +0.000 OA
ATOM     33  OXT UNL     1      25.546  42.209  49.722  0.00  0.00    +0.000 OA
ENDBRANCH   2  31
TORSDOF 6
ENDMDL
MODEL 9
REMARK VINA RESULT:      -0.9      3.943      6.168
REMARK  Name = 323032
REMARK  6 active torsions:
REMARK  status: ('A' for Active; 'I' for Inactive)
REMARK    1  A    between atoms: C_3  and  O_5
REMARK    2  A    between atoms: O_5  and  C_8
REMARK    3  A    between atoms: C_14  and  C_15
REMARK    4  A    between atoms: CA_16  and  N_17
REMARK    5  A    between atoms: CA_16  and  C_18
REMARK    6  A    between atoms: C_19  and  C_23
REMARK                            x       y       z     vdW  Elec       q    Type
REMARK                         _______ _______ _______ _____ _____    ______ ____
ROOT
ATOM      1  C   UNL     1      25.232  39.946  46.981  0.00  0.00    +0.000 C 
ATOM      2  CA  UNL     1      24.073  39.290  46.791  0.00  0.00    +0.000 C 
ENDROOT
BRANCH   1   8
ATOM      3  C   UNL     1      26.530  43.975  46.981  0.00  0.00    +0.000 A 
ATOM      4  C   UNL     1      26.061  43.409  48.166  0.00  0.00    +0.000 A 
ATOM      5  C   UNL     1      26.335  43.314  45.764  0.00  0.00    +0.000 A 
ATOM      6  C   UNL     1      25.539  42.114  48.152  0.00  0.00    +0.000 A 
ATOM      7  C   UNL     1      25.833  42.012  45.755  0.00  0.00    +0.000 A 
ATOM      8  C   UNL     1      25.480  41.390  46.958  0.00  0.00    +0.000 A 
BRANCH   3   9
ATOM      9  O   UNL     1      27.213  45.170  47.071  0.00  0.00    +0.000 OA
BRANCH   9  12
ATOM     10 BR   UNL     1      26.339  48.096  47.522  0.00  0.00    +0.000 Br
ATOM     11  C   UNL     1      26.958  47.263  45.934  0.00  0.00    +0.000 A 
ATOM     12  C   UNL     1      27.352  45.920  45.913  0.00  0.00    +0.000 A 
ATOM     13  C   UNL     1      27.014  48.033  44.765  0.00  0.00    +0.000 A 
ATOM     14  C   UNL     1      27.890  45.389  44.730  0.00  0.00    +0.000 A 
ATOM     15  C   UNL     1      27.481  47.470  43.576  0.00  0.00    +0.000 A 
ATOM     16  C   UNL     1      27.931  46.154  43.562  0.00  0.00    +0.000 A 
ENDBRANCH   9  12
ENDBRANCH   3   9
ENDBRANCH   1   8
BRANCH   2  17
ATOM     17  N   UNL     1      22.820  39.861  46.663  0.00  0.00    +0.000 N 
ATOM     18  C   UNL     1      22.347  40.455  45.501  0.00  0.00    +0.000 C 
ATOM     19  O   UNL     1      23.022  40.590  44.486  0.00  0.00    +0.000 OA
ATOM     20  H   UNL     1      22.225  39.844  47.447  0.00  0.00    +0.000 HD
BRANCH  18  21
ATOM     21  C   UNL     1      20.944  41.076  45.635  0.00  0.00    +0.000 C 
ATOM     22  C   UNL     1      21.034  42.615  45.468  0.00  0.00    +0.000 C 
ATOM     23  C   UNL     1      20.323  40.718  47.005  0.00  0.00    +0.000 C 
ATOM     24  C   UNL     1      19.986  40.542  44.536  0.00  0.00    +0.000 C 
ATOM     25  C   UNL     1      19.653  43.259  45.631  0.00  0.00    +0.000 C 
ATOM     26  C   UNL     1      18.942  41.377  47.155  0.00  0.00    +0.000 C 
ATOM     27  C   UNL     1      18.592  41.191  44.668  0.00  0.00    +0.000 C 
ATOM     28  C   UNL     1      19.100  42.901  47.022  0.00  0.00    +0.000 C 
ATOM     29  C   UNL     1      18.719  42.717  44.540  0.00  0.00    +0.000 C 
ATOM     30  C   UNL     1      18.006  40.863  46.050  0.00  0.00    +0.000 C 
ENDBRANCH  18  21
ENDBRANCH   2  17
BRANCH   2  31
ATOM     31  C   UNL     1      24.182  37.803  46.632  0.00  0.00    +0.000 C 
ATOM     32  O   UNL     1      24.858  37.227  45.796  0.00  0.00    +0.000 OA
ATOM     33  OXT UNL     1      23.404  37.155  47.531  0.00  0.00    +0.000 OA
ENDBRANCH   2  31
TORSDOF 6
ENDMDL
