MODEL 1
REMARK VINA RESULT:      -8.1      0.000      0.000
REMARK  Name = 322029
REMARK  8 active torsions:
REMARK  status: ('A' for Active; 'I' for Inactive)
REMARK    1  A    between atoms: C_3  and  O_5
REMARK    2  A    between atoms: O_5  and  C_8
REMARK    3  A    between atoms: C_14  and  C_15
REMARK    4  A    between atoms: CA_16  and  N_17
REMARK    5  A    between atoms: CA_16  and  C_18
REMARK    6  A    between atoms: C_19  and  C_23
REMARK    7  A    between atoms: C_23  and  C_24
REMARK    8  A    between atoms: C_29  and  C_30
REMARK                            x       y       z     vdW  Elec       q    Type
REMARK                         _______ _______ _______ _____ _____    ______ ____
ROOT
ATOM      1  C   UNL     1      25.679  40.486  46.912  0.00  0.00    +0.000 C 
ATOM      2  CA  UNL     1      25.432  41.464  47.796  0.00  0.00    +0.000 C 
ENDROOT
BRANCH   1   8
ATOM      3  C   UNL     1      22.691  39.248  44.204  0.00  0.00    +0.000 A 
ATOM      4  C   UNL     1      23.138  38.354  45.177  0.00  0.00    +0.000 A 
ATOM      5  C   UNL     1      23.429  40.403  43.928  0.00  0.00    +0.000 A 
ATOM      6  C   UNL     1      24.222  38.701  45.991  0.00  0.00    +0.000 A 
ATOM      7  C   UNL     1      24.482  40.768  44.764  0.00  0.00    +0.000 A 
ATOM      8  C   UNL     1      24.847  39.946  45.832  0.00  0.00    +0.000 A 
BRANCH   3   9
ATOM      9  O   UNL     1      21.496  38.962  43.577  0.00  0.00    +0.000 OA
BRANCH   9  12
ATOM     10 BR   UNL     1      18.618  37.872  43.792  0.00  0.00    +0.000 Br
ATOM     11  C   UNL     1      19.202  39.651  43.499  0.00  0.00    +0.000 A 
ATOM     12  C   UNL     1      20.562  39.981  43.470  0.00  0.00    +0.000 A 
ATOM     13  C   UNL     1      18.231  40.643  43.315  0.00  0.00    +0.000 A 
ATOM     14  C   UNL     1      20.925  41.333  43.354  0.00  0.00    +0.000 A 
ATOM     15  C   UNL     1      18.612  41.973  43.119  0.00  0.00    +0.000 A 
ATOM     16  C   UNL     1      19.957  42.318  43.151  0.00  0.00    +0.000 A 
ENDBRANCH   9  12
ENDBRANCH   3   9
ENDBRANCH   1   8
BRANCH   2  17
ATOM     17  N   UNL     1      24.243  42.162  47.910  0.00  0.00    +0.000 N 
ATOM     18  C   UNL     1      23.030  41.558  48.207  0.00  0.00    +0.000 C 
ATOM     19  O   UNL     1      22.894  40.357  48.428  0.00  0.00    +0.000 OA
ATOM     20  H   UNL     1      24.259  43.136  47.773  0.00  0.00    +0.000 HD
BRANCH  18  21
ATOM     21  C   UNL     1      21.870  42.529  48.347  0.00  0.00    +0.000 C 
BRANCH  21  22
ATOM     22  C   UNL     1      20.559  42.061  47.764  0.00  0.00    +0.000 A 
ATOM     23  C   UNL     1      20.397  40.777  47.226  0.00  0.00    +0.000 A 
ATOM     24  C   UNL     1      19.437  42.898  47.853  0.00  0.00    +0.000 A 
ATOM     25  C   UNL     1      19.149  40.348  46.768  0.00  0.00    +0.000 A 
ATOM     26  C   UNL     1      18.188  42.469  47.396  0.00  0.00    +0.000 A 
ATOM     27  C   UNL     1      18.030  41.188  46.851  0.00  0.00    +0.000 A 
BRANCH  27  28
ATOM     28  C   UNL     1      16.671  40.725  46.385  0.00  0.00    +0.000 C 
ATOM     29  F   UNL     1      15.764  40.586  47.391  0.00  0.00    +0.000 F 
ATOM     30  F   UNL     1      16.109  41.587  45.492  0.00  0.00    +0.000 F 
ATOM     31  F   UNL     1      16.720  39.517  45.757  0.00  0.00    +0.000 F 
ENDBRANCH  27  28
ENDBRANCH  21  22
ENDBRANCH  18  21
ENDBRANCH   2  17
BRANCH   2  32
ATOM     32  C   UNL     1      26.598  41.855  48.664  0.00  0.00    +0.000 C 
ATOM     33  O   UNL     1      27.713  41.363  48.609  0.00  0.00    +0.000 OA
ATOM     34  OXT UNL     1      26.272  42.835  49.537  0.00  0.00    +0.000 OA
ENDBRANCH   2  32
TORSDOF 8
ENDMDL
MODEL 2
REMARK VINA RESULT:      -8.1      1.464      1.971
REMARK  Name = 322029
REMARK  8 active torsions:
REMARK  status: ('A' for Active; 'I' for Inactive)
REMARK    1  A    between atoms: C_3  and  O_5
REMARK    2  A    between atoms: O_5  and  C_8
REMARK    3  A    between atoms: C_14  and  C_15
REMARK    4  A    between atoms: CA_16  and  N_17
REMARK    5  A    between atoms: CA_16  and  C_18
REMARK    6  A    between atoms: C_19  and  C_23
REMARK    7  A    between atoms: C_23  and  C_24
REMARK    8  A    between atoms: C_29  and  C_30
REMARK                            x       y       z     vdW  Elec       q    Type
REMARK                         _______ _______ _______ _____ _____    ______ ____
ROOT
ATOM      1  C   UNL     1      23.987  41.001  47.539  0.00  0.00    +0.000 C 
ATOM      2  CA  UNL     1      23.451  41.879  48.399  0.00  0.00    +0.000 C 
ENDROOT
BRANCH   1   8
ATOM      3  C   UNL     1      21.833  39.728  44.142  0.00  0.00    +0.000 A 
ATOM      4  C   UNL     1      21.485  39.224  45.395  0.00  0.00    +0.000 A 
ATOM      5  C   UNL     1      23.055  40.385  43.971  0.00  0.00    +0.000 A 
ATOM      6  C   UNL     1      22.276  39.528  46.509  0.00  0.00    +0.000 A 
ATOM      7  C   UNL     1      23.821  40.723  45.085  0.00  0.00    +0.000 A 
ATOM      8  C   UNL     1      23.406  40.345  46.363  0.00  0.00    +0.000 A 
BRANCH   3   9
ATOM      9  O   UNL     1      20.917  39.587  43.121  0.00  0.00    +0.000 OA
BRANCH   9  12
ATOM     10 BR   UNL     1      18.421  37.908  43.813  0.00  0.00    +0.000 Br
ATOM     11  C   UNL     1      18.545  39.758  43.416  0.00  0.00    +0.000 A 
ATOM     12  C   UNL     1      19.775  40.374  43.162  0.00  0.00    +0.000 A 
ATOM     13  C   UNL     1      17.362  40.506  43.387  0.00  0.00    +0.000 A 
ATOM     14  C   UNL     1      19.808  41.766  42.979  0.00  0.00    +0.000 A 
ATOM     15  C   UNL     1      17.403  41.878  43.123  0.00  0.00    +0.000 A 
ATOM     16  C   UNL     1      18.627  42.508  42.931  0.00  0.00    +0.000 A 
ENDBRANCH   9  12
ENDBRANCH   3   9
ENDBRANCH   1   8
BRANCH   2  17
ATOM     17  N   UNL     1      22.141  42.323  48.382  0.00  0.00    +0.000 N 
ATOM     18  C   UNL     1      21.528  42.846  47.252  0.00  0.00    +0.000 C 
ATOM     19  O   UNL     1      22.070  42.938  46.154  0.00  0.00    +0.000 OA
ATOM     20  H   UNL     1      21.617  42.265  49.213  0.00  0.00    +0.000 HD
BRANCH  18  21
ATOM     21  C   UNL     1      20.065  43.207  47.450  0.00  0.00    +0.000 C 
BRANCH  21  22
ATOM     22  C   UNL     1      19.080  42.098  47.171  0.00  0.00    +0.000 A 
ATOM     23  C   UNL     1      19.422  40.745  47.303  0.00  0.00    +0.000 A 
ATOM     24  C   UNL     1      17.751  42.428  46.870  0.00  0.00    +0.000 A 
ATOM     25  C   UNL     1      18.464  39.747  47.115  0.00  0.00    +0.000 A 
ATOM     26  C   UNL     1      16.791  41.430  46.684  0.00  0.00    +0.000 A 
ATOM     27  C   UNL     1      17.137  40.077  46.807  0.00  0.00    +0.000 A 
BRANCH  27  28
ATOM     28  C   UNL     1      16.087  39.008  46.630  0.00  0.00    +0.000 C 
ATOM     29  F   UNL     1      15.702  38.826  45.337  0.00  0.00    +0.000 F 
ATOM     30  F   UNL     1      16.511  37.789  47.069  0.00  0.00    +0.000 F 
ATOM     31  F   UNL     1      14.948  39.278  47.326  0.00  0.00    +0.000 F 
ENDBRANCH  27  28
ENDBRANCH  21  22
ENDBRANCH  18  21
ENDBRANCH   2  17
BRANCH   2  32
ATOM     32  C   UNL     1      24.409  42.463  49.402  0.00  0.00    +0.000 C 
ATOM     33  O   UNL     1      24.091  42.995  50.453  0.00  0.00    +0.000 OA
ATOM     34  OXT UNL     1      25.696  42.335  49.007  0.00  0.00    +0.000 OA
ENDBRANCH   2  32
TORSDOF 8
ENDMDL
MODEL 3
REMARK VINA RESULT:      -7.3      1.633      2.654
REMARK  Name = 322029
REMARK  8 active torsions:
REMARK  status: ('A' for Active; 'I' for Inactive)
REMARK    1  A    between atoms: C_3  and  O_5
REMARK    2  A    between atoms: O_5  and  C_8
REMARK    3  A    between atoms: C_14  and  C_15
REMARK    4  A    between atoms: CA_16  and  N_17
REMARK    5  A    between atoms: CA_16  and  C_18
REMARK    6  A    between atoms: C_19  and  C_23
REMARK    7  A    between atoms: C_23  and  C_24
REMARK    8  A    between atoms: C_29  and  C_30
REMARK                            x       y       z     vdW  Elec       q    Type
REMARK                         _______ _______ _______ _____ _____    ______ ____
ROOT
ATOM      1  C   UNL     1      24.515  40.461  45.458  0.00  0.00    +0.000 C 
ATOM      2  CA  UNL     1      24.596  41.262  46.531  0.00  0.00    +0.000 C 
ENDROOT
BRANCH   1   8
ATOM      3  C   UNL     1      20.808  39.781  43.564  0.00  0.00    +0.000 A 
ATOM      4  C   UNL     1      21.470  38.710  44.165  0.00  0.00    +0.000 A 
ATOM      5  C   UNL     1      21.494  40.973  43.317  0.00  0.00    +0.000 A 
ATOM      6  C   UNL     1      22.761  38.892  44.674  0.00  0.00    +0.000 A 
ATOM      7  C   UNL     1      22.763  41.168  43.859  0.00  0.00    +0.000 A 
ATOM      8  C   UNL     1      23.378  40.148  44.588  0.00  0.00    +0.000 A 
BRANCH   3   9
ATOM      9  O   UNL     1      19.469  39.621  43.274  0.00  0.00    +0.000 OA
BRANCH   9  12
ATOM     10 BR   UNL     1      16.649  40.512  42.394  0.00  0.00    +0.000 Br
ATOM     11  C   UNL     1      17.260  40.011  44.117  0.00  0.00    +0.000 A 
ATOM     12  C   UNL     1      18.576  39.589  44.335  0.00  0.00    +0.000 A 
ATOM     13  C   UNL     1      16.352  40.068  45.181  0.00  0.00    +0.000 A 
ATOM     14  C   UNL     1      18.936  39.132  45.614  0.00  0.00    +0.000 A 
ATOM     15  C   UNL     1      16.749  39.686  46.466  0.00  0.00    +0.000 A 
ATOM     16  C   UNL     1      18.035  39.208  46.678  0.00  0.00    +0.000 A 
ENDBRANCH   9  12
ENDBRANCH   3   9
ENDBRANCH   1   8
BRANCH   2  17
ATOM     17  N   UNL     1      23.539  41.949  47.102  0.00  0.00    +0.000 N 
ATOM     18  C   UNL     1      22.503  41.325  47.781  0.00  0.00    +0.000 C 
ATOM     19  O   UNL     1      22.434  40.114  47.971  0.00  0.00    +0.000 OA
ATOM     20  H   UNL     1      23.522  42.930  47.021  0.00  0.00    +0.000 HD
BRANCH  18  21
ATOM     21  C   UNL     1      21.487  42.284  48.381  0.00  0.00    +0.000 C 
BRANCH  21  22
ATOM     22  C   UNL     1      20.264  42.543  47.535  0.00  0.00    +0.000 A 
ATOM     23  C   UNL     1      19.009  42.810  48.099  0.00  0.00    +0.000 A 
ATOM     24  C   UNL     1      20.405  42.621  46.141  0.00  0.00    +0.000 A 
ATOM     25  C   UNL     1      17.916  43.125  47.288  0.00  0.00    +0.000 A 
ATOM     26  C   UNL     1      19.313  42.938  45.330  0.00  0.00    +0.000 A 
ATOM     27  C   UNL     1      18.056  43.195  45.895  0.00  0.00    +0.000 A 
BRANCH  27  28
ATOM     28  C   UNL     1      16.889  43.562  45.011  0.00  0.00    +0.000 C 
ATOM     29  F   UNL     1      17.231  43.775  43.710  0.00  0.00    +0.000 F 
ATOM     30  F   UNL     1      15.930  42.595  44.992  0.00  0.00    +0.000 F 
ATOM     31  F   UNL     1      16.262  44.699  45.423  0.00  0.00    +0.000 F 
ENDBRANCH  27  28
ENDBRANCH  21  22
ENDBRANCH  18  21
ENDBRANCH   2  17
BRANCH   2  32
ATOM     32  C   UNL     1      25.983  41.463  47.080  0.00  0.00    +0.000 C 
ATOM     33  O   UNL     1      26.823  40.588  47.208  0.00  0.00    +0.000 OA
ATOM     34  OXT UNL     1      26.207  42.750  47.430  0.00  0.00    +0.000 OA
ENDBRANCH   2  32
TORSDOF 8
ENDMDL
MODEL 4
REMARK VINA RESULT:      -6.0      2.262      4.492
REMARK  Name = 322029
REMARK  8 active torsions:
REMARK  status: ('A' for Active; 'I' for Inactive)
REMARK    1  A    between atoms: C_3  and  O_5
REMARK    2  A    between atoms: O_5  and  C_8
REMARK    3  A    between atoms: C_14  and  C_15
REMARK    4  A    between atoms: CA_16  and  N_17
REMARK    5  A    between atoms: CA_16  and  C_18
REMARK    6  A    between atoms: C_19  and  C_23
REMARK    7  A    between atoms: C_23  and  C_24
REMARK    8  A    between atoms: C_29  and  C_30
REMARK                            x       y       z     vdW  Elec       q    Type
REMARK                         _______ _______ _______ _____ _____    ______ ____
ROOT
ATOM      1  C   UNL     1      23.771  42.047  47.555  0.00  0.00    +0.000 C 
ATOM      2  CA  UNL     1      24.418  41.230  46.711  0.00  0.00    +0.000 C 
ENDROOT
BRANCH   1   8
ATOM      3  C   UNL     1      19.571  42.382  47.747  0.00  0.00    +0.000 A 
ATOM      4  C   UNL     1      20.199  42.430  46.503  0.00  0.00    +0.000 A 
ATOM      5  C   UNL     1      20.324  42.538  48.914  0.00  0.00    +0.000 A 
ATOM      6  C   UNL     1      21.597  42.460  46.434  0.00  0.00    +0.000 A 
ATOM      7  C   UNL     1      21.715  42.526  48.848  0.00  0.00    +0.000 A 
ATOM      8  C   UNL     1      22.357  42.431  47.612  0.00  0.00    +0.000 A 
BRANCH   3   9
ATOM      9  O   UNL     1      18.214  42.135  47.766  0.00  0.00    +0.000 OA
BRANCH   9  12
ATOM     10 BR   UNL     1      16.501  43.313  45.485  0.00  0.00    +0.000 Br
ATOM     11  C   UNL     1      16.887  41.498  45.875  0.00  0.00    +0.000 A 
ATOM     12  C   UNL     1      17.725  41.137  46.936  0.00  0.00    +0.000 A 
ATOM     13  C   UNL     1      16.311  40.513  45.064  0.00  0.00    +0.000 A 
ATOM     14  C   UNL     1      18.054  39.782  47.106  0.00  0.00    +0.000 A 
ATOM     15  C   UNL     1      16.584  39.162  45.297  0.00  0.00    +0.000 A 
ATOM     16  C   UNL     1      17.464  38.799  46.309  0.00  0.00    +0.000 A 
ENDBRANCH   9  12
ENDBRANCH   3   9
ENDBRANCH   1   8
BRANCH   2  17
ATOM     17  N   UNL     1      23.856  40.593  45.620  0.00  0.00    +0.000 N 
ATOM     18  C   UNL     1      23.531  39.244  45.608  0.00  0.00    +0.000 C 
ATOM     19  O   UNL     1      23.680  38.491  46.567  0.00  0.00    +0.000 OA
ATOM     20  H   UNL     1      23.677  41.124  44.811  0.00  0.00    +0.000 HD
BRANCH  18  21
ATOM     21  C   UNL     1      22.863  38.777  44.325  0.00  0.00    +0.000 C 
BRANCH  21  22
ATOM     22  C   UNL     1      21.741  39.654  43.823  0.00  0.00    +0.000 A 
ATOM     23  C   UNL     1      20.395  39.281  43.937  0.00  0.00    +0.000 A 
ATOM     24  C   UNL     1      22.046  40.926  43.318  0.00  0.00    +0.000 A 
ATOM     25  C   UNL     1      19.379  40.152  43.535  0.00  0.00    +0.000 A 
ATOM     26  C   UNL     1      21.030  41.798  42.918  0.00  0.00    +0.000 A 
ATOM     27  C   UNL     1      19.685  41.421  43.024  0.00  0.00    +0.000 A 
BRANCH  27  28
ATOM     28  C   UNL     1      18.594  42.380  42.613  0.00  0.00    +0.000 C 
ATOM     29  F   UNL     1      17.532  41.778  42.011  0.00  0.00    +0.000 F 
ATOM     30  F   UNL     1      18.083  43.067  43.673  0.00  0.00    +0.000 F 
ATOM     31  F   UNL     1      19.036  43.324  41.735  0.00  0.00    +0.000 F 
ENDBRANCH  27  28
ENDBRANCH  21  22
ENDBRANCH  18  21
ENDBRANCH   2  17
BRANCH   2  32
ATOM     32  C   UNL     1      25.855  40.949  47.063  0.00  0.00    +0.000 C 
ATOM     33  O   UNL     1      26.414  41.316  48.084  0.00  0.00    +0.000 OA
ATOM     34  OXT UNL     1      26.479  40.229  46.104  0.00  0.00    +0.000 OA
ENDBRANCH   2  32
TORSDOF 8
ENDMDL
MODEL 5
REMARK VINA RESULT:      -5.9      2.185      4.452
REMARK  Name = 322029
REMARK  8 active torsions:
REMARK  status: ('A' for Active; 'I' for Inactive)
REMARK    1  A    between atoms: C_3  and  O_5
REMARK    2  A    between atoms: O_5  and  C_8
REMARK    3  A    between atoms: C_14  and  C_15
REMARK    4  A    between atoms: CA_16  and  N_17
REMARK    5  A    between atoms: CA_16  and  C_18
REMARK    6  A    between atoms: C_19  and  C_23
REMARK    7  A    between atoms: C_23  and  C_24
REMARK    8  A    between atoms: C_29  and  C_30
REMARK                            x       y       z     vdW  Elec       q    Type
REMARK                         _______ _______ _______ _____ _____    ______ ____
ROOT
ATOM      1  C   UNL     1      22.294  42.735  49.086  0.00  0.00    +0.000 C 
ATOM      2  CA  UNL     1      23.546  42.282  48.929  0.00  0.00    +0.000 C 
ENDROOT
BRANCH   1   8
ATOM      3  C   UNL     1      18.712  41.539  47.205  0.00  0.00    +0.000 A 
ATOM      4  C   UNL     1      19.931  41.103  46.684  0.00  0.00    +0.000 A 
ATOM      5  C   UNL     1      18.684  42.592  48.123  0.00  0.00    +0.000 A 
ATOM      6  C   UNL     1      21.127  41.602  47.212  0.00  0.00    +0.000 A 
ATOM      7  C   UNL     1      19.874  43.060  48.677  0.00  0.00    +0.000 A 
ATOM      8  C   UNL     1      21.097  42.528  48.265  0.00  0.00    +0.000 A 
BRANCH   3   9
ATOM      9  O   UNL     1      17.574  40.867  46.810  0.00  0.00    +0.000 OA
BRANCH   9  12
ATOM     10 BR   UNL     1      17.089  38.031  45.694  0.00  0.00    +0.000 Br
ATOM     11  C   UNL     1      17.024  39.698  44.792  0.00  0.00    +0.000 A 
ATOM     12  C   UNL     1      17.232  40.906  45.467  0.00  0.00    +0.000 A 
ATOM     13  C   UNL     1      16.756  39.694  43.418  0.00  0.00    +0.000 A 
ATOM     14  C   UNL     1      17.066  42.110  44.762  0.00  0.00    +0.000 A 
ATOM     15  C   UNL     1      16.674  40.899  42.714  0.00  0.00    +0.000 A 
ATOM     16  C   UNL     1      16.817  42.105  43.388  0.00  0.00    +0.000 A 
ENDBRANCH   9  12
ENDBRANCH   3   9
ENDBRANCH   1   8
BRANCH   2  17
ATOM     17  N   UNL     1      24.001  41.532  47.859  0.00  0.00    +0.000 N 
ATOM     18  C   UNL     1      25.323  41.139  47.711  0.00  0.00    +0.000 C 
ATOM     19  O   UNL     1      26.211  41.388  48.522  0.00  0.00    +0.000 OA
ATOM     20  H   UNL     1      23.353  41.263  47.169  0.00  0.00    +0.000 HD
BRANCH  18  21
ATOM     21  C   UNL     1      25.579  40.265  46.494  0.00  0.00    +0.000 C 
BRANCH  21  22
ATOM     22  C   UNL     1      24.380  40.019  45.611  0.00  0.00    +0.000 A 
ATOM     23  C   UNL     1      23.693  38.797  45.607  0.00  0.00    +0.000 A 
ATOM     24  C   UNL     1      23.873  41.077  44.842  0.00  0.00    +0.000 A 
ATOM     25  C   UNL     1      22.540  38.630  44.837  0.00  0.00    +0.000 A 
ATOM     26  C   UNL     1      22.718  40.911  44.073  0.00  0.00    +0.000 A 
ATOM     27  C   UNL     1      22.038  39.686  44.064  0.00  0.00    +0.000 A 
BRANCH  27  28
ATOM     28  C   UNL     1      20.777  39.526  43.250  0.00  0.00    +0.000 C 
ATOM     29  F   UNL     1      21.003  39.288  41.928  0.00  0.00    +0.000 F 
ATOM     30  F   UNL     1      20.005  38.492  43.689  0.00  0.00    +0.000 F 
ATOM     31  F   UNL     1      19.982  40.631  43.300  0.00  0.00    +0.000 F 
ENDBRANCH  27  28
ENDBRANCH  21  22
ENDBRANCH  18  21
ENDBRANCH   2  17
BRANCH   2  32
ATOM     32  C   UNL     1      24.482  42.572  50.071  0.00  0.00    +0.000 C 
ATOM     33  O   UNL     1      25.442  43.324  50.021  0.00  0.00    +0.000 OA
ATOM     34  OXT UNL     1      24.141  41.893  51.189  0.00  0.00    +0.000 OA
ENDBRANCH   2  32
TORSDOF 8
ENDMDL
MODEL 6
REMARK VINA RESULT:      -5.9      2.503      4.259
REMARK  Name = 322029
REMARK  8 active torsions:
REMARK  status: ('A' for Active; 'I' for Inactive)
REMARK    1  A    between atoms: C_3  and  O_5
REMARK    2  A    between atoms: O_5  and  C_8
REMARK    3  A    between atoms: C_14  and  C_15
REMARK    4  A    between atoms: CA_16  and  N_17
REMARK    5  A    between atoms: CA_16  and  C_18
REMARK    6  A    between atoms: C_19  and  C_23
REMARK    7  A    between atoms: C_23  and  C_24
REMARK    8  A    between atoms: C_29  and  C_30
REMARK                            x       y       z     vdW  Elec       q    Type
REMARK                         _______ _______ _______ _____ _____    ______ ____
ROOT
ATOM      1  C   UNL     1      23.362  41.543  46.704  0.00  0.00    +0.000 C 
ATOM      2  CA  UNL     1      23.631  40.371  46.109  0.00  0.00    +0.000 C 
ENDROOT
BRANCH   1   8
ATOM      3  C   UNL     1      19.531  43.266  46.319  0.00  0.00    +0.000 A 
ATOM      4  C   UNL     1      20.580  43.763  45.545  0.00  0.00    +0.000 A 
ATOM      5  C   UNL     1      19.803  42.442  47.414  0.00  0.00    +0.000 A 
ATOM      6  C   UNL     1      21.882  43.297  45.762  0.00  0.00    +0.000 A 
ATOM      7  C   UNL     1      21.092  41.946  47.604  0.00  0.00    +0.000 A 
ATOM      8  C   UNL     1      22.124  42.327  46.745  0.00  0.00    +0.000 A 
BRANCH   3   9
ATOM      9  O   UNL     1      18.246  43.586  45.932  0.00  0.00    +0.000 OA
BRANCH   9  12
ATOM     10 BR   UNL     1      16.251  41.484  46.990  0.00  0.00    +0.000 Br
ATOM     11  C   UNL     1      16.789  41.828  45.205  0.00  0.00    +0.000 A 
ATOM     12  C   UNL     1      17.683  42.859  44.894  0.00  0.00    +0.000 A 
ATOM     13  C   UNL     1      16.261  41.021  44.190  0.00  0.00    +0.000 A 
ATOM     14  C   UNL     1      17.959  43.128  43.543  0.00  0.00    +0.000 A 
ATOM     15  C   UNL     1      16.610  41.251  42.855  0.00  0.00    +0.000 A 
ATOM     16  C   UNL     1      17.447  42.311  42.533  0.00  0.00    +0.000 A 
ENDBRANCH   9  12
ENDBRANCH   3   9
ENDBRANCH   1   8
BRANCH   2  17
ATOM     17  N   UNL     1      22.754  39.653  45.316  0.00  0.00    +0.000 N 
ATOM     18  C   UNL     1      22.274  40.116  44.099  0.00  0.00    +0.000 C 
ATOM     19  O   UNL     1      22.598  41.186  43.592  0.00  0.00    +0.000 OA
ATOM     20  H   UNL     1      22.456  38.769  45.631  0.00  0.00    +0.000 HD
BRANCH  18  21
ATOM     21  C   UNL     1      21.375  39.130  43.371  0.00  0.00    +0.000 C 
BRANCH  21  22
ATOM     22  C   UNL     1      20.065  38.821  44.055  0.00  0.00    +0.000 A 
ATOM     23  C   UNL     1      19.228  37.781  43.629  0.00  0.00    +0.000 A 
ATOM     24  C   UNL     1      19.720  39.529  45.215  0.00  0.00    +0.000 A 
ATOM     25  C   UNL     1      18.063  37.471  44.334  0.00  0.00    +0.000 A 
ATOM     26  C   UNL     1      18.556  39.218  45.922  0.00  0.00    +0.000 A 
ATOM     27  C   UNL     1      17.715  38.184  45.490  0.00  0.00    +0.000 A 
BRANCH  27  28
ATOM     28  C   UNL     1      16.473  37.839  46.275  0.00  0.00    +0.000 C 
ATOM     29  F   UNL     1      15.313  38.133  45.625  0.00  0.00    +0.000 F 
ATOM     30  F   UNL     1      16.405  36.512  46.580  0.00  0.00    +0.000 F 
ATOM     31  F   UNL     1      16.411  38.497  47.466  0.00  0.00    +0.000 F 
ENDBRANCH  27  28
ENDBRANCH  21  22
ENDBRANCH  18  21
ENDBRANCH   2  17
BRANCH   2  32
ATOM     32  C   UNL     1      24.983  39.787  46.422  0.00  0.00    +0.000 C 
ATOM     33  O   UNL     1      25.955  40.423  46.794  0.00  0.00    +0.000 OA
ATOM     34  OXT UNL     1      25.010  38.448  46.239  0.00  0.00    +0.000 OA
ENDBRANCH   2  32
TORSDOF 8
ENDMDL
MODEL 7
REMARK VINA RESULT:      -5.2      3.915      7.706
REMARK  Name = 322029
REMARK  8 active torsions:
REMARK  status: ('A' for Active; 'I' for Inactive)
REMARK    1  A    between atoms: C_3  and  O_5
REMARK    2  A    between atoms: O_5  and  C_8
REMARK    3  A    between atoms: C_14  and  C_15
REMARK    4  A    between atoms: CA_16  and  N_17
REMARK    5  A    between atoms: CA_16  and  C_18
REMARK    6  A    between atoms: C_19  and  C_23
REMARK    7  A    between atoms: C_23  and  C_24
REMARK    8  A    between atoms: C_29  and  C_30
REMARK                            x       y       z     vdW  Elec       q    Type
REMARK                         _______ _______ _______ _____ _____    ______ ____
ROOT
ATOM      1  C   UNL     1      18.450  43.161  45.812  0.00  0.00    +0.000 C 
ATOM      2  CA  UNL     1      18.058  42.551  44.684  0.00  0.00    +0.000 C 
ENDROOT
BRANCH   1   8
ATOM      3  C   UNL     1      22.035  42.050  47.737  0.00  0.00    +0.000 A 
ATOM      4  C   UNL     1      20.830  41.936  48.429  0.00  0.00    +0.000 A 
ATOM      5  C   UNL     1      22.095  42.804  46.562  0.00  0.00    +0.000 A 
ATOM      6  C   UNL     1      19.653  42.430  47.855  0.00  0.00    +0.000 A 
ATOM      7  C   UNL     1      20.919  43.259  45.970  0.00  0.00    +0.000 A 
ATOM      8  C   UNL     1      19.688  43.025  46.586  0.00  0.00    +0.000 A 
BRANCH   3   9
ATOM      9  O   UNL     1      23.123  41.363  48.235  0.00  0.00    +0.000 OA
BRANCH   9  12
ATOM     10 BR   UNL     1      25.945  41.699  47.032  0.00  0.00    +0.000 Br
ATOM     11  C   UNL     1      25.302  42.227  48.736  0.00  0.00    +0.000 A 
ATOM     12  C   UNL     1      23.967  42.033  49.108  0.00  0.00    +0.000 A 
ATOM     13  C   UNL     1      26.202  42.829  49.623  0.00  0.00    +0.000 A 
ATOM     14  C   UNL     1      23.530  42.542  50.343  0.00  0.00    +0.000 A 
ATOM     15  C   UNL     1      25.770  43.257  50.882  0.00  0.00    +0.000 A 
ATOM     16  C   UNL     1      24.433  43.124  51.235  0.00  0.00    +0.000 A 
ENDBRANCH   9  12
ENDBRANCH   3   9
ENDBRANCH   1   8
BRANCH   2  17
ATOM     17  N   UNL     1      18.762  41.564  44.017  0.00  0.00    +0.000 N 
ATOM     18  C   UNL     1      19.658  41.828  42.991  0.00  0.00    +0.000 C 
ATOM     19  O   UNL     1      19.938  42.956  42.594  0.00  0.00    +0.000 OA
ATOM     20  H   UNL     1      18.619  40.628  44.285  0.00  0.00    +0.000 HD
BRANCH  18  21
ATOM     21  C   UNL     1      20.364  40.595  42.451  0.00  0.00    +0.000 C 
BRANCH  21  22
ATOM     22  C   UNL     1      21.465  40.045  43.325  0.00  0.00    +0.000 A 
ATOM     23  C   UNL     1      22.595  40.800  43.666  0.00  0.00    +0.000 A 
ATOM     24  C   UNL     1      21.308  38.775  43.899  0.00  0.00    +0.000 A 
ATOM     25  C   UNL     1      23.556  40.289  44.542  0.00  0.00    +0.000 A 
ATOM     26  C   UNL     1      22.267  38.264  44.776  0.00  0.00    +0.000 A 
ATOM     27  C   UNL     1      23.402  39.017  45.109  0.00  0.00    +0.000 A 
BRANCH  27  28
ATOM     28  C   UNL     1      24.419  38.466  46.078  0.00  0.00    +0.000 C 
ATOM     29  F   UNL     1      24.066  38.610  47.385  0.00  0.00    +0.000 F 
ATOM     30  F   UNL     1      24.640  37.134  45.896  0.00  0.00    +0.000 F 
ATOM     31  F   UNL     1      25.636  39.066  45.951  0.00  0.00    +0.000 F 
ENDBRANCH  27  28
ENDBRANCH  21  22
ENDBRANCH  18  21
ENDBRANCH   2  17
BRANCH   2  32
ATOM     32  C   UNL     1      16.777  43.068  44.086  0.00  0.00    +0.000 C 
ATOM     33  O   UNL     1      16.254  44.137  44.357  0.00  0.00    +0.000 OA
ATOM     34  OXT UNL     1      16.248  42.200  43.194  0.00  0.00    +0.000 OA
ENDBRANCH   2  32
TORSDOF 8
ENDMDL
