MODEL 1
REMARK VINA RESULT:      -6.6      0.000      0.000
REMARK  Name = 323273
REMARK  9 active torsions:
REMARK  status: ('A' for Active; 'I' for Inactive)
REMARK    1  A    between atoms: C_3  and  O_5
REMARK    2  A    between atoms: O_5  and  C_8
REMARK    3  A    between atoms: C_14  and  C_15
REMARK    4  A    between atoms: C_16  and  N_17
REMARK    5  A    between atoms: C_16  and  C_18
REMARK    6  A    between atoms: C_19  and  C_23
REMARK    7  A    between atoms: N_21  and  CA_24
REMARK    8  A    between atoms: CA_24  and  C_27
REMARK    9  A    between atoms: C_27  and  O_30
REMARK                            x       y       z     vdW  Elec       q    Type
REMARK                         _______ _______ _______ _____ _____    ______ ____
ROOT
ATOM      1  C   UNK A   1      20.146  42.284  43.468  0.00  0.00    +0.000 C 
ATOM      2  C   UNK A   1      18.901  41.809  43.270  0.00  0.00    +0.000 C 
ENDROOT
BRANCH   1   8
ATOM      3  C   UNK A   1      22.425  41.248  46.911  0.00  0.00    +0.000 A 
ATOM      4  C   UNK A   1      21.719  42.451  46.892  0.00  0.00    +0.000 A 
ATOM      5  C   UNK A   1      22.588  40.523  45.724  0.00  0.00    +0.000 A 
ATOM      6  C   UNK A   1      21.050  42.851  45.727  0.00  0.00    +0.000 A 
ATOM      7  C   UNK A   1      21.901  40.916  44.567  0.00  0.00    +0.000 A 
ATOM      8  C   UNK A   1      21.091  42.057  44.574  0.00  0.00    +0.000 A 
BRANCH   3   9
ATOM      9  O   UNK A   1      22.917  40.809  48.124  0.00  0.00    +0.000 OA
BRANCH   9  12
ATOM     10 BR   UNK A   1      25.685  40.631  46.748  0.00  0.00    +0.000 Br
ATOM     11  C   UNK A   1      25.176  41.602  48.296  0.00  0.00    +0.000 A 
ATOM     12  C   UNK A   1      23.857  41.598  48.768  0.00  0.00    +0.000 A 
ATOM     13  C   UNK A   1      26.166  42.336  48.964  0.00  0.00    +0.000 A 
ATOM     14  C   UNK A   1      23.531  42.420  49.859  0.00  0.00    +0.000 A 
ATOM     15  C   UNK A   1      25.840  43.087  50.094  0.00  0.00    +0.000 A 
ATOM     16  C   UNK A   1      24.520  43.140  50.533  0.00  0.00    +0.000 A 
ENDBRANCH   9  12
ENDBRANCH   3   9
ENDBRANCH   1   8
BRANCH   2  17
ATOM     17  N   UNK A   1      18.265  40.860  44.054  0.00  0.00    +0.000 N 
ATOM     18  C   UNK A   0      18.595  39.517  43.978  0.00  0.00    +0.000 C 
ATOM     19  O   UNK A   0      19.357  39.045  43.138  0.00  0.00    +0.000 OA
ATOM     20  H   UNK A   1      17.563  41.147  44.680  0.00  0.00    +0.000 HD
BRANCH  18  21
ATOM     21  C   UNK A   0      17.870  38.590  44.885  0.00  0.00    +0.000 A 
ATOM     22  C   UNK A   0      17.178  39.155  45.967  0.00  0.00    +0.000 A 
ATOM     23  C   UNK A   0      17.776  37.214  44.646  0.00  0.00    +0.000 A 
ATOM     24  C   UNK A   0      16.381  38.362  46.789  0.00  0.00    +0.000 A 
ATOM     25  C   UNK A   0      16.970  36.422  45.472  0.00  0.00    +0.000 A 
ATOM     26  C   UNK A   0      16.270  36.997  46.536  0.00  0.00    +0.000 A 
ENDBRANCH  18  21
ENDBRANCH   2  17
BRANCH   2  27
ATOM     27  C   UNK A   1      18.149  42.401  42.098  0.00  0.00    +0.000 C 
ATOM     28  O   UNK A   1      18.322  43.552  41.708  0.00  0.00    +0.000 OA
ATOM     29  N   GLY A   2      17.280  41.524  41.485  0.00  0.00    +0.000 N 
ATOM     30  H   GLY A   2      17.168  40.620  41.859  0.00  0.00    +0.000 HD
BRANCH  29  31
ATOM     31  CA  GLY A   2      16.524  41.902  40.297  0.00  0.00    +0.000 C 
BRANCH  31  32
ATOM     32  C   GLY A   2      15.136  41.261  40.245  0.00  0.00    +0.000 C 
BRANCH  32  33
ATOM     33  O   GLY A   2      14.823  40.882  38.905  0.00  0.00    +0.000 OA
ATOM     34  H   GLY A   2      14.139  40.194  38.915  0.00  0.00    +0.000 HD
ENDBRANCH  32  33
ENDBRANCH  31  32
ENDBRANCH  29  31
ENDBRANCH   2  27
TORSDOF 9
ENDMDL
MODEL 2
REMARK VINA RESULT:      -5.7      3.231      8.232
REMARK  Name = 323273
REMARK  9 active torsions:
REMARK  status: ('A' for Active; 'I' for Inactive)
REMARK    1  A    between atoms: C_3  and  O_5
REMARK    2  A    between atoms: O_5  and  C_8
REMARK    3  A    between atoms: C_14  and  C_15
REMARK    4  A    between atoms: C_16  and  N_17
REMARK    5  A    between atoms: C_16  and  C_18
REMARK    6  A    between atoms: C_19  and  C_23
REMARK    7  A    between atoms: N_21  and  CA_24
REMARK    8  A    between atoms: CA_24  and  C_27
REMARK    9  A    between atoms: C_27  and  O_30
REMARK                            x       y       z     vdW  Elec       q    Type
REMARK                         _______ _______ _______ _____ _____    ______ ____
ROOT
ATOM      1  C   UNK A   1      23.611  40.659  45.492  0.00  0.00    +0.000 C 
ATOM      2  C   UNK A   1      23.542  41.561  46.490  0.00  0.00    +0.000 C 
ENDROOT
BRANCH   1   8
ATOM      3  C   UNK A   1      20.173  39.275  43.398  0.00  0.00    +0.000 A 
ATOM      4  C   UNK A   1      21.002  38.355  44.039  0.00  0.00    +0.000 A 
ATOM      5  C   UNK A   1      20.606  40.597  43.230  0.00  0.00    +0.000 A 
ATOM      6  C   UNK A   1      22.191  38.787  44.643  0.00  0.00    +0.000 A 
ATOM      7  C   UNK A   1      21.784  41.029  43.853  0.00  0.00    +0.000 A 
ATOM      8  C   UNK A   1      22.561  40.137  44.601  0.00  0.00    +0.000 A 
BRANCH   3   9
ATOM      9  O   UNK A   1      18.933  38.839  42.975  0.00  0.00    +0.000 OA
BRANCH   9  12
ATOM     10 BR   UNK A   1      17.114  41.241  43.688  0.00  0.00    +0.000 Br
ATOM     11  C   UNK A   1      17.120  39.486  44.408  0.00  0.00    +0.000 A 
ATOM     12  C   UNK A   1      17.999  38.501  43.941  0.00  0.00    +0.000 A 
ATOM     13  C   UNK A   1      16.208  39.195  45.431  0.00  0.00    +0.000 A 
ATOM     14  C   UNK A   1      17.879  37.197  44.449  0.00  0.00    +0.000 A 
ATOM     15  C   UNK A   1      16.154  37.913  45.980  0.00  0.00    +0.000 A 
ATOM     16  C   UNK A   1      16.979  36.911  45.479  0.00  0.00    +0.000 A 
ENDBRANCH   9  12
ENDBRANCH   3   9
ENDBRANCH   1   8
BRANCH   2  17
ATOM     17  N   UNK A   1      22.428  42.315  46.821  0.00  0.00    +0.000 N 
ATOM     18  C   UNK A   0      21.246  41.721  47.233  0.00  0.00    +0.000 C 
ATOM     19  O   UNK A   0      21.043  40.511  47.208  0.00  0.00    +0.000 OA
ATOM     20  H   UNK A   1      22.478  43.296  46.764  0.00  0.00    +0.000 HD
BRANCH  18  21
ATOM     21  C   UNK A   0      20.124  42.627  47.592  0.00  0.00    +0.000 A 
ATOM     22  C   UNK A   0      19.450  43.268  46.543  0.00  0.00    +0.000 A 
ATOM     23  C   UNK A   0      19.665  42.780  48.906  0.00  0.00    +0.000 A 
ATOM     24  C   UNK A   0      18.316  44.037  46.794  0.00  0.00    +0.000 A 
ATOM     25  C   UNK A   0      18.522  43.550  49.153  0.00  0.00    +0.000 A 
ATOM     26  C   UNK A   0      17.847  44.170  48.098  0.00  0.00    +0.000 A 
ENDBRANCH  18  21
ENDBRANCH   2  17
BRANCH   2  27
ATOM     27  C   UNK A   1      24.799  41.725  47.318  0.00  0.00    +0.000 C 
ATOM     28  O   UNK A   1      25.909  41.391  46.916  0.00  0.00    +0.000 OA
ATOM     29  N   GLY A   2      24.592  42.315  48.546  0.00  0.00    +0.000 N 
ATOM     30  H   GLY A   2      23.673  42.540  48.821  0.00  0.00    +0.000 HD
BRANCH  29  31
ATOM     31  CA  GLY A   2      25.698  42.615  49.447  0.00  0.00    +0.000 C 
BRANCH  31  32
ATOM     32  C   GLY A   2      25.235  43.153  50.802  0.00  0.00    +0.000 C 
BRANCH  32  33
ATOM     33  O   GLY A   2      23.891  42.745  51.056  0.00  0.00    +0.000 OA
ATOM     34  H   GLY A   2      23.593  43.121  51.899  0.00  0.00    +0.000 HD
ENDBRANCH  32  33
ENDBRANCH  31  32
ENDBRANCH  29  31
ENDBRANCH   2  27
TORSDOF 9
ENDMDL
MODEL 3
REMARK VINA RESULT:      -5.5      1.290      1.690
REMARK  Name = 323273
REMARK  9 active torsions:
REMARK  status: ('A' for Active; 'I' for Inactive)
REMARK    1  A    between atoms: C_3  and  O_5
REMARK    2  A    between atoms: O_5  and  C_8
REMARK    3  A    between atoms: C_14  and  C_15
REMARK    4  A    between atoms: C_16  and  N_17
REMARK    5  A    between atoms: C_16  and  C_18
REMARK    6  A    between atoms: C_19  and  C_23
REMARK    7  A    between atoms: N_21  and  CA_24
REMARK    8  A    between atoms: CA_24  and  C_27
REMARK    9  A    between atoms: C_27  and  O_30
REMARK                            x       y       z     vdW  Elec       q    Type
REMARK                         _______ _______ _______ _____ _____    ______ ____
ROOT
ATOM      1  C   UNK A   1      19.611  42.656  43.978  0.00  0.00    +0.000 C 
ATOM      2  C   UNK A   1      18.590  41.929  43.484  0.00  0.00    +0.000 C 
ENDROOT
BRANCH   1   8
ATOM      3  C   UNK A   1      21.874  41.966  47.516  0.00  0.00    +0.000 A 
ATOM      4  C   UNK A   1      20.569  41.482  47.431  0.00  0.00    +0.000 A 
ATOM      5  C   UNK A   1      22.336  42.881  46.561  0.00  0.00    +0.000 A 
ATOM      6  C   UNK A   1      19.779  41.791  46.315  0.00  0.00    +0.000 A 
ATOM      7  C   UNK A   1      21.552  43.171  45.437  0.00  0.00    +0.000 A 
ATOM      8  C   UNK A   1      20.286  42.592  45.285  0.00  0.00    +0.000 A 
BRANCH   3   9
ATOM      9  O   UNK A   1      22.671  41.493  48.540  0.00  0.00    +0.000 OA
BRANCH   9  12
ATOM     10 BR   UNK A   1      24.222  43.159  50.639  0.00  0.00    +0.000 Br
ATOM     11  C   UNK A   1      24.888  42.170  49.164  0.00  0.00    +0.000 A 
ATOM     12  C   UNK A   1      24.039  41.437  48.325  0.00  0.00    +0.000 A 
ATOM     13  C   UNK A   1      26.270  42.188  48.934  0.00  0.00    +0.000 A 
ATOM     14  C   UNK A   1      24.611  40.647  47.314  0.00  0.00    +0.000 A 
ATOM     15  C   UNK A   1      26.815  41.459  47.876  0.00  0.00    +0.000 A 
ATOM     16  C   UNK A   1      25.987  40.677  47.076  0.00  0.00    +0.000 A 
ENDBRANCH   9  12
ENDBRANCH   3   9
ENDBRANCH   1   8
BRANCH   2  17
ATOM     17  N   UNK A   1      18.012  40.829  44.097  0.00  0.00    +0.000 N 
ATOM     18  C   UNK A   0      18.587  39.571  44.020  0.00  0.00    +0.000 C 
ATOM     19  O   UNK A   0      19.552  39.300  43.311  0.00  0.00    +0.000 OA
ATOM     20  H   UNK A   1      17.174  40.944  44.599  0.00  0.00    +0.000 HD
BRANCH  18  21
ATOM     21  C   UNK A   0      17.898  38.468  44.740  0.00  0.00    +0.000 A 
ATOM     22  C   UNK A   0      17.108  38.813  45.846  0.00  0.00    +0.000 A 
ATOM     23  C   UNK A   0      17.932  37.139  44.300  0.00  0.00    +0.000 A 
ATOM     24  C   UNK A   0      16.341  37.849  46.496  0.00  0.00    +0.000 A 
ATOM     25  C   UNK A   0      17.155  36.175  44.954  0.00  0.00    +0.000 A 
ATOM     26  C   UNK A   0      16.357  36.532  46.044  0.00  0.00    +0.000 A 
ENDBRANCH  18  21
ENDBRANCH   2  17
BRANCH   2  27
ATOM     27  C   UNK A   1      18.031  42.395  42.157  0.00  0.00    +0.000 C 
ATOM     28  O   UNK A   1      18.393  43.431  41.609  0.00  0.00    +0.000 OA
ATOM     29  N   GLY A   2      17.108  41.535  41.601  0.00  0.00    +0.000 N 
ATOM     30  H   GLY A   2      16.841  40.729  42.101  0.00  0.00    +0.000 HD
BRANCH  29  31
ATOM     31  CA  GLY A   2      16.517  41.789  40.293  0.00  0.00    +0.000 C 
BRANCH  31  32
ATOM     32  C   GLY A   2      15.088  41.257  40.170  0.00  0.00    +0.000 C 
BRANCH  32  33
ATOM     33  O   GLY A   2      14.837  40.835  38.830  0.00  0.00    +0.000 OA
ATOM     34  H   GLY A   2      14.456  39.943  38.838  0.00  0.00    +0.000 HD
ENDBRANCH  32  33
ENDBRANCH  31  32
ENDBRANCH  29  31
ENDBRANCH   2  27
TORSDOF 9
ENDMDL
MODEL 4
REMARK VINA RESULT:      -5.3      2.661      4.417
REMARK  Name = 323273
REMARK  9 active torsions:
REMARK  status: ('A' for Active; 'I' for Inactive)
REMARK    1  A    between atoms: C_3  and  O_5
REMARK    2  A    between atoms: O_5  and  C_8
REMARK    3  A    between atoms: C_14  and  C_15
REMARK    4  A    between atoms: C_16  and  N_17
REMARK    5  A    between atoms: C_16  and  C_18
REMARK    6  A    between atoms: C_19  and  C_23
REMARK    7  A    between atoms: N_21  and  CA_24
REMARK    8  A    between atoms: CA_24  and  C_27
REMARK    9  A    between atoms: C_27  and  O_30
REMARK                            x       y       z     vdW  Elec       q    Type
REMARK                         _______ _______ _______ _____ _____    ______ ____
ROOT
ATOM      1  C   UNK A   1      20.617  39.106  44.309  0.00  0.00    +0.000 C 
ATOM      2  C   UNK A   1      19.371  39.575  44.514  0.00  0.00    +0.000 C 
ENDROOT
BRANCH   1   8
ATOM      3  C   UNK A   1      24.380  40.586  45.637  0.00  0.00    +0.000 A 
ATOM      4  C   UNK A   1      23.244  41.384  45.768  0.00  0.00    +0.000 A 
ATOM      5  C   UNK A   1      24.325  39.429  44.851  0.00  0.00    +0.000 A 
ATOM      6  C   UNK A   1      22.020  40.950  45.241  0.00  0.00    +0.000 A 
ATOM      7  C   UNK A   1      23.095  38.988  44.343  0.00  0.00    +0.000 A 
ATOM      8  C   UNK A   1      21.927  39.723  44.574  0.00  0.00    +0.000 A 
BRANCH   3   9
ATOM      9  O   UNK A   1      25.517  40.967  46.322  0.00  0.00    +0.000 OA
BRANCH   9  12
ATOM     10 BR   UNK A   1      23.644  39.360  48.192  0.00  0.00    +0.000 Br
ATOM     11  C   UNK A   1      24.507  41.021  48.499  0.00  0.00    +0.000 A 
ATOM     12  C   UNK A   1      25.358  41.596  47.546  0.00  0.00    +0.000 A 
ATOM     13  C   UNK A   1      24.272  41.666  49.721  0.00  0.00    +0.000 A 
ATOM     14  C   UNK A   1      26.042  42.777  47.881  0.00  0.00    +0.000 A 
ATOM     15  C   UNK A   1      24.900  42.878  50.007  0.00  0.00    +0.000 A 
ATOM     16  C   UNK A   1      25.796  43.426  49.093  0.00  0.00    +0.000 A 
ENDBRANCH   9  12
ENDBRANCH   3   9
ENDBRANCH   1   8
BRANCH   2  17
ATOM     17  N   UNK A   1      19.050  40.756  45.166  0.00  0.00    +0.000 N 
ATOM     18  C   UNK A   0      18.276  40.763  46.314  0.00  0.00    +0.000 C 
ATOM     19  O   UNK A   0      17.708  39.772  46.764  0.00  0.00    +0.000 OA
ATOM     20  H   UNK A   1      19.382  41.609  44.805  0.00  0.00    +0.000 HD
BRANCH  18  21
ATOM     21  C   UNK A   0      18.019  42.083  46.948  0.00  0.00    +0.000 A 
ATOM     22  C   UNK A   0      19.000  42.586  47.813  0.00  0.00    +0.000 A 
ATOM     23  C   UNK A   0      16.899  42.866  46.640  0.00  0.00    +0.000 A 
ATOM     24  C   UNK A   0      18.883  43.866  48.350  0.00  0.00    +0.000 A 
ATOM     25  C   UNK A   0      16.788  44.153  47.178  0.00  0.00    +0.000 A 
ATOM     26  C   UNK A   0      17.781  44.653  48.025  0.00  0.00    +0.000 A 
ENDBRANCH  18  21
ENDBRANCH   2  17
BRANCH   2  27
ATOM     27  C   UNK A   1      18.247  38.732  43.951  0.00  0.00    +0.000 C 
ATOM     28  O   UNK A   1      17.420  39.170  43.158  0.00  0.00    +0.000 OA
ATOM     29  N   GLY A   2      18.257  37.422  44.378  0.00  0.00    +0.000 N 
ATOM     30  H   GLY A   2      18.934  37.136  45.034  0.00  0.00    +0.000 HD
BRANCH  29  31
ATOM     31  CA  GLY A   2      17.290  36.449  43.883  0.00  0.00    +0.000 C 
BRANCH  31  32
ATOM     32  C   GLY A   2      16.529  35.741  45.006  0.00  0.00    +0.000 C 
BRANCH  32  33
ATOM     33  O   GLY A   2      17.414  35.443  46.084  0.00  0.00    +0.000 OA
ATOM     34  H   GLY A   2      17.364  34.497  46.292  0.00  0.00    +0.000 HD
ENDBRANCH  32  33
ENDBRANCH  31  32
ENDBRANCH  29  31
ENDBRANCH   2  27
TORSDOF 9
ENDMDL
MODEL 5
REMARK VINA RESULT:      -5.2      2.124      3.651
REMARK  Name = 323273
REMARK  9 active torsions:
REMARK  status: ('A' for Active; 'I' for Inactive)
REMARK    1  A    between atoms: C_3  and  O_5
REMARK    2  A    between atoms: O_5  and  C_8
REMARK    3  A    between atoms: C_14  and  C_15
REMARK    4  A    between atoms: C_16  and  N_17
REMARK    5  A    between atoms: C_16  and  C_18
REMARK    6  A    between atoms: C_19  and  C_23
REMARK    7  A    between atoms: N_21  and  CA_24
REMARK    8  A    between atoms: CA_24  and  C_27
REMARK    9  A    between atoms: C_27  and  O_30
REMARK                            x       y       z     vdW  Elec       q    Type
REMARK                         _______ _______ _______ _____ _____    ______ ____
ROOT
ATOM      1  C   UNK A   1      20.718  39.191  44.000  0.00  0.00    +0.000 C 
ATOM      2  C   UNK A   1      19.526  39.685  44.388  0.00  0.00    +0.000 C 
ENDROOT
BRANCH   1   8
ATOM      3  C   UNK A   1      24.350  40.144  46.004  0.00  0.00    +0.000 A 
ATOM      4  C   UNK A   1      23.780  41.076  45.137  0.00  0.00    +0.000 A 
ATOM      5  C   UNK A   1      23.875  38.827  46.014  0.00  0.00    +0.000 A 
ATOM      6  C   UNK A   1      22.642  40.735  44.394  0.00  0.00    +0.000 A 
ATOM      7  C   UNK A   1      22.725  38.496  45.285  0.00  0.00    +0.000 A 
ATOM      8  C   UNK A   1      22.075  39.460  44.506  0.00  0.00    +0.000 A 
BRANCH   3   9
ATOM      9  O   UNK A   1      25.356  40.577  46.845  0.00  0.00    +0.000 OA
BRANCH   9  12
ATOM     10 BR   UNK A   1      27.842  41.458  48.466  0.00  0.00    +0.000 Br
ATOM     11  C   UNK A   1      26.010  41.834  48.783  0.00  0.00    +0.000 A 
ATOM     12  C   UNK A   1      25.005  41.379  47.919  0.00  0.00    +0.000 A 
ATOM     13  C   UNK A   1      25.682  42.591  49.916  0.00  0.00    +0.000 A 
ATOM     14  C   UNK A   1      23.680  41.780  48.159  0.00  0.00    +0.000 A 
ATOM     15  C   UNK A   1      24.352  42.916  50.183  0.00  0.00    +0.000 A 
ATOM     16  C   UNK A   1      23.353  42.522  49.296  0.00  0.00    +0.000 A 
ENDBRANCH   9  12
ENDBRANCH   3   9
ENDBRANCH   1   8
BRANCH   2  17
ATOM     17  N   UNK A   1      19.310  40.503  45.486  0.00  0.00    +0.000 N 
ATOM     18  C   UNK A   0      19.310  41.883  45.373  0.00  0.00    +0.000 C 
ATOM     19  O   UNK A   0      19.629  42.487  44.353  0.00  0.00    +0.000 OA
ATOM     20  H   UNK A   1      19.152  40.093  46.366  0.00  0.00    +0.000 HD
BRANCH  18  21
ATOM     21  C   UNK A   0      19.038  42.662  46.609  0.00  0.00    +0.000 A 
ATOM     22  C   UNK A   0      17.969  43.569  46.578  0.00  0.00    +0.000 A 
ATOM     23  C   UNK A   0      19.736  42.454  47.805  0.00  0.00    +0.000 A 
ATOM     24  C   UNK A   0      17.582  44.247  47.732  0.00  0.00    +0.000 A 
ATOM     25  C   UNK A   0      19.340  43.134  48.964  0.00  0.00    +0.000 A 
ATOM     26  C   UNK A   0      18.262  44.022  48.927  0.00  0.00    +0.000 A 
ENDBRANCH  18  21
ENDBRANCH   2  17
BRANCH   2  27
ATOM     27  C   UNK A   1      18.345  39.317  43.516  0.00  0.00    +0.000 C 
ATOM     28  O   UNK A   1      18.037  38.155  43.268  0.00  0.00    +0.000 OA
ATOM     29  N   GLY A   2      17.626  40.399  43.056  0.00  0.00    +0.000 N 
ATOM     30  H   GLY A   2      17.937  41.308  43.271  0.00  0.00    +0.000 HD
BRANCH  29  31
ATOM     31  CA  GLY A   2      16.416  40.230  42.260  0.00  0.00    +0.000 C 
BRANCH  31  32
ATOM     32  C   GLY A   2      16.204  41.359  41.250  0.00  0.00    +0.000 C 
BRANCH  32  33
ATOM     33  O   GLY A   2      15.031  41.109  40.476  0.00  0.00    +0.000 OA
ATOM     34  H   GLY A   2      15.151  41.467  39.583  0.00  0.00    +0.000 HD
ENDBRANCH  32  33
ENDBRANCH  31  32
ENDBRANCH  29  31
ENDBRANCH   2  27
TORSDOF 9
ENDMDL
MODEL 6
REMARK VINA RESULT:      -4.0      1.214      1.788
REMARK  Name = 323273
REMARK  9 active torsions:
REMARK  status: ('A' for Active; 'I' for Inactive)
REMARK    1  A    between atoms: C_3  and  O_5
REMARK    2  A    between atoms: O_5  and  C_8
REMARK    3  A    between atoms: C_14  and  C_15
REMARK    4  A    between atoms: C_16  and  N_17
REMARK    5  A    between atoms: C_16  and  C_18
REMARK    6  A    between atoms: C_19  and  C_23
REMARK    7  A    between atoms: N_21  and  CA_24
REMARK    8  A    between atoms: CA_24  and  C_27
REMARK    9  A    between atoms: C_27  and  O_30
REMARK                            x       y       z     vdW  Elec       q    Type
REMARK                         _______ _______ _______ _____ _____    ______ ____
ROOT
ATOM      1  C   UNK A   1      20.410  41.747  43.006  0.00  0.00    +0.000 C 
ATOM      2  C   UNK A   1      19.065  41.733  43.076  0.00  0.00    +0.000 C 
ENDROOT
BRANCH   1   8
ATOM      3  C   UNK A   1      23.731  40.796  45.493  0.00  0.00    +0.000 A 
ATOM      4  C   UNK A   1      23.441  39.986  44.396  0.00  0.00    +0.000 A 
ATOM      5  C   UNK A   1      22.795  41.749  45.915  0.00  0.00    +0.000 A 
ATOM      6  C   UNK A   1      22.292  40.228  43.631  0.00  0.00    +0.000 A 
ATOM      7  C   UNK A   1      21.658  42.002  45.136  0.00  0.00    +0.000 A 
ATOM      8  C   UNK A   1      21.423  41.274  43.964  0.00  0.00    +0.000 A 
BRANCH   3   9
ATOM      9  O   UNK A   1      24.957  40.636  46.108  0.00  0.00    +0.000 OA
BRANCH   9  12
ATOM     10 BR   UNK A   1      23.470  39.408  48.530  0.00  0.00    +0.000 Br
ATOM     11  C   UNK A   1      24.569  40.952  48.455  0.00  0.00    +0.000 A 
ATOM     12  C   UNK A   1      25.200  41.351  47.270  0.00  0.00    +0.000 A 
ATOM     13  C   UNK A   1      24.741  41.692  49.633  0.00  0.00    +0.000 A 
ATOM     14  C   UNK A   1      26.080  42.445  47.311  0.00  0.00    +0.000 A 
ATOM     15  C   UNK A   1      25.558  42.822  49.639  0.00  0.00    +0.000 A 
ATOM     16  C   UNK A   1      26.239  43.190  48.482  0.00  0.00    +0.000 A 
ENDBRANCH   9  12
ENDBRANCH   3   9
ENDBRANCH   1   8
BRANCH   2  17
ATOM     17  N   UNK A   1      18.315  41.124  44.070  0.00  0.00    +0.000 N 
ATOM     18  C   UNK A   0      18.264  39.747  44.200  0.00  0.00    +0.000 C 
ATOM     19  O   UNK A   0      18.751  38.963  43.389  0.00  0.00    +0.000 OA
ATOM     20  H   UNK A   1      17.807  41.685  44.698  0.00  0.00    +0.000 HD
BRANCH  18  21
ATOM     21  C   UNK A   0      17.452  39.203  45.320  0.00  0.00    +0.000 A 
ATOM     22  C   UNK A   0      16.863  40.124  46.197  0.00  0.00    +0.000 A 
ATOM     23  C   UNK A   0      17.183  37.836  45.466  0.00  0.00    +0.000 A 
ATOM     24  C   UNK A   0      15.994  39.694  47.197  0.00  0.00    +0.000 A 
ATOM     25  C   UNK A   0      16.306  37.409  46.470  0.00  0.00    +0.000 A 
ATOM     26  C   UNK A   0      15.709  38.337  47.327  0.00  0.00    +0.000 A 
ENDBRANCH  18  21
ENDBRANCH   2  17
BRANCH   2  27
ATOM     27  C   UNK A   1      18.340  42.474  41.974  0.00  0.00    +0.000 C 
ATOM     28  O   UNK A   1      18.508  43.670  41.754  0.00  0.00    +0.000 OA
ATOM     29  N   GLY A   2      17.503  41.682  41.217  0.00  0.00    +0.000 N 
ATOM     30  H   GLY A   2      17.393  40.734  41.458  0.00  0.00    +0.000 HD
BRANCH  29  31
ATOM     31  CA  GLY A   2      16.777  42.214  40.070  0.00  0.00    +0.000 C 
BRANCH  31  32
ATOM     32  C   GLY A   2      15.562  41.368  39.689  0.00  0.00    +0.000 C 
BRANCH  32  33
ATOM     33  O   GLY A   2      14.817  41.027  40.858  0.00  0.00    +0.000 OA
ATOM     34  H   GLY A   2      14.888  41.745  41.507  0.00  0.00    +0.000 HD
ENDBRANCH  32  33
ENDBRANCH  31  32
ENDBRANCH  29  31
ENDBRANCH   2  27
TORSDOF 9
ENDMDL
