MODEL 1
REMARK VINA RESULT:      -8.1      0.000      0.000
REMARK  Name = 319853
REMARK  6 active torsions:
REMARK  status: ('A' for Active; 'I' for Inactive)
REMARK    1  A    between atoms: C_3  and  O_5
REMARK    2  A    between atoms: O_5  and  C_8
REMARK    3  A    between atoms: C_14  and  C_15
REMARK    4  A    between atoms: CA_16  and  N_17
REMARK    5  A    between atoms: CA_16  and  C_18
REMARK    6  A    between atoms: C_19  and  C_23
REMARK                            x       y       z     vdW  Elec       q    Type
REMARK                         _______ _______ _______ _____ _____    ______ ____
ROOT
ATOM      1  C   UNL     1      20.233  42.415  43.540  0.00  0.00    +0.000 C 
ATOM      2  CA  UNL     1      18.976  41.971  43.374  0.00  0.00    +0.000 C 
ENDROOT
BRANCH   1   8
ATOM      3  C   UNL     1      22.516  41.260  46.924  0.00  0.00    +0.000 A 
ATOM      4  C   UNL     1      21.872  42.497  46.928  0.00  0.00    +0.000 A 
ATOM      5  C   UNL     1      22.625  40.536  45.735  0.00  0.00    +0.000 A 
ATOM      6  C   UNL     1      21.202  42.936  45.780  0.00  0.00    +0.000 A 
ATOM      7  C   UNL     1      21.937  40.964  44.596  0.00  0.00    +0.000 A 
ATOM      8  C   UNL     1      21.182  42.142  44.628  0.00  0.00    +0.000 A 
BRANCH   3   9
ATOM      9  O   UNL     1      23.001  40.785  48.126  0.00  0.00    +0.000 OA
BRANCH   9  12
ATOM     10 BR   UNL     1      25.801  40.643  46.835  0.00  0.00    +0.000 Br
ATOM     11  C   UNL     1      25.241  41.595  48.376  0.00  0.00    +0.000 A 
ATOM     12  C   UNL     1      23.910  41.576  48.810  0.00  0.00    +0.000 A 
ATOM     13  C   UNL     1      26.204  42.325  49.082  0.00  0.00    +0.000 A 
ATOM     14  C   UNL     1      23.543  42.380  49.900  0.00  0.00    +0.000 A 
ATOM     15  C   UNL     1      25.837  43.061  50.212  0.00  0.00    +0.000 A 
ATOM     16  C   UNL     1      24.505  43.098  50.612  0.00  0.00    +0.000 A 
ENDBRANCH   9  12
ENDBRANCH   3   9
ENDBRANCH   1   8
BRANCH   2  17
ATOM     17  N   UNL     1      18.342  41.002  44.137  0.00  0.00    +0.000 N 
ATOM     18  C   UNL     1      18.626  39.655  43.976  0.00  0.00    +0.000 C 
ATOM     19  O   UNL     1      19.359  39.224  43.093  0.00  0.00    +0.000 OA
ATOM     20  H   UNL     1      17.676  41.277  44.808  0.00  0.00    +0.000 HD
BRANCH  18  21
ATOM     21  C   UNL     1      17.879  38.696  44.827  0.00  0.00    +0.000 A 
ATOM     22  C   UNL     1      17.145  39.219  45.902  0.00  0.00    +0.000 A 
ATOM     23  C   UNL     1      17.827  37.326  44.552  0.00  0.00    +0.000 A 
ATOM     24  C   UNL     1      16.348  38.386  46.685  0.00  0.00    +0.000 A 
ATOM     25  C   UNL     1      17.021  36.494  45.338  0.00  0.00    +0.000 A 
ATOM     26  C   UNL     1      16.279  37.026  46.395  0.00  0.00    +0.000 A 
ENDBRANCH  18  21
ENDBRANCH   2  17
BRANCH   2  27
ATOM     27  C   UNL     1      18.211  42.593  42.244  0.00  0.00    +0.000 C 
ATOM     28  O   UNL     1      18.449  43.677  41.742  0.00  0.00    +0.000 OA
ATOM     29  OXT UNL     1      17.194  41.794  41.842  0.00  0.00    +0.000 OA
ENDBRANCH   2  27
TORSDOF 6
ENDMDL
MODEL 2
REMARK VINA RESULT:      -7.3      3.247      7.729
REMARK  Name = 319853
REMARK  6 active torsions:
REMARK  status: ('A' for Active; 'I' for Inactive)
REMARK    1  A    between atoms: C_3  and  O_5
REMARK    2  A    between atoms: O_5  and  C_8
REMARK    3  A    between atoms: C_14  and  C_15
REMARK    4  A    between atoms: CA_16  and  N_17
REMARK    5  A    between atoms: CA_16  and  C_18
REMARK    6  A    between atoms: C_19  and  C_23
REMARK                            x       y       z     vdW  Elec       q    Type
REMARK                         _______ _______ _______ _____ _____    ______ ____
ROOT
ATOM      1  C   UNL     1      23.201  38.954  44.669  0.00  0.00    +0.000 C 
ATOM      2  CA  UNL     1      23.836  38.796  45.843  0.00  0.00    +0.000 C 
ENDROOT
BRANCH   1   8
ATOM      3  C   UNL     1      20.159  41.817  43.933  0.00  0.00    +0.000 A 
ATOM      4  C   UNL     1      20.187  40.646  43.178  0.00  0.00    +0.000 A 
ATOM      5  C   UNL     1      21.255  42.160  44.728  0.00  0.00    +0.000 A 
ATOM      6  C   UNL     1      21.243  39.741  43.337  0.00  0.00    +0.000 A 
ATOM      7  C   UNL     1      22.298  41.245  44.904  0.00  0.00    +0.000 A 
ATOM      8  C   UNL     1      22.273  40.010  44.246  0.00  0.00    +0.000 A 
BRANCH   3   9
ATOM      9  O   UNL     1      19.013  42.586  43.884  0.00  0.00    +0.000 OA
BRANCH   9  12
ATOM     10 BR   UNL     1      16.812  40.426  44.011  0.00  0.00    +0.000 Br
ATOM     11  C   UNL     1      17.197  41.816  45.242  0.00  0.00    +0.000 A 
ATOM     12  C   UNL     1      18.265  42.698  45.045  0.00  0.00    +0.000 A 
ATOM     13  C   UNL     1      16.373  41.942  46.367  0.00  0.00    +0.000 A 
ATOM     14  C   UNL     1      18.555  43.643  46.042  0.00  0.00    +0.000 A 
ATOM     15  C   UNL     1      16.629  42.937  47.315  0.00  0.00    +0.000 A 
ATOM     16  C   UNL     1      17.727  43.778  47.158  0.00  0.00    +0.000 A 
ENDBRANCH   9  12
ENDBRANCH   3   9
ENDBRANCH   1   8
BRANCH   2  17
ATOM     17  N   UNL     1      23.874  39.714  46.882  0.00  0.00    +0.000 N 
ATOM     18  C   UNL     1      24.879  40.663  46.971  0.00  0.00    +0.000 C 
ATOM     19  O   UNL     1      25.846  40.691  46.218  0.00  0.00    +0.000 OA
ATOM     20  H   UNL     1      23.172  39.690  47.572  0.00  0.00    +0.000 HD
BRANCH  18  21
ATOM     21  C   UNL     1      24.842  41.586  48.134  0.00  0.00    +0.000 A 
ATOM     22  C   UNL     1      23.601  41.800  48.751  0.00  0.00    +0.000 A 
ATOM     23  C   UNL     1      25.993  42.178  48.662  0.00  0.00    +0.000 A 
ATOM     24  C   UNL     1      23.511  42.581  49.902  0.00  0.00    +0.000 A 
ATOM     25  C   UNL     1      25.898  42.958  49.821  0.00  0.00    +0.000 A 
ATOM     26  C   UNL     1      24.661  43.150  50.442  0.00  0.00    +0.000 A 
ENDBRANCH  18  21
ENDBRANCH   2  17
BRANCH   2  27
ATOM     27  C   UNL     1      24.569  37.500  46.017  0.00  0.00    +0.000 C 
ATOM     28  O   UNL     1      25.594  37.185  45.439  0.00  0.00    +0.000 OA
ATOM     29  OXT UNL     1      23.939  36.696  46.907  0.00  0.00    +0.000 OA
ENDBRANCH   2  27
TORSDOF 6
ENDMDL
MODEL 3
REMARK VINA RESULT:      -6.3      2.926      8.056
REMARK  Name = 319853
REMARK  6 active torsions:
REMARK  status: ('A' for Active; 'I' for Inactive)
REMARK    1  A    between atoms: C_3  and  O_5
REMARK    2  A    between atoms: O_5  and  C_8
REMARK    3  A    between atoms: C_14  and  C_15
REMARK    4  A    between atoms: CA_16  and  N_17
REMARK    5  A    between atoms: CA_16  and  C_18
REMARK    6  A    between atoms: C_19  and  C_23
REMARK                            x       y       z     vdW  Elec       q    Type
REMARK                         _______ _______ _______ _____ _____    ______ ____
ROOT
ATOM      1  C   UNL     1      23.111  38.945  44.628  0.00  0.00    +0.000 C 
ATOM      2  CA  UNL     1      23.886  38.881  45.725  0.00  0.00    +0.000 C 
ENDROOT
BRANCH   1   8
ATOM      3  C   UNL     1      19.395  40.966  44.308  0.00  0.00    +0.000 A 
ATOM      4  C   UNL     1      19.741  40.022  43.342  0.00  0.00    +0.000 A 
ATOM      5  C   UNL     1      20.358  41.425  45.209  0.00  0.00    +0.000 A 
ATOM      6  C   UNL     1      21.006  39.423  43.376  0.00  0.00    +0.000 A 
ATOM      7  C   UNL     1      21.613  40.811  45.257  0.00  0.00    +0.000 A 
ATOM      8  C   UNL     1      21.926  39.773  44.371  0.00  0.00    +0.000 A 
BRANCH   3   9
ATOM      9  O   UNL     1      18.081  41.389  44.350  0.00  0.00    +0.000 OA
BRANCH   9  12
ATOM     10 BR   UNL     1      17.175  43.118  46.742  0.00  0.00    +0.000 Br
ATOM     11  C   UNL     1      16.731  41.321  46.327  0.00  0.00    +0.000 A 
ATOM     12  C   UNL     1      17.209  40.693  45.171  0.00  0.00    +0.000 A 
ATOM     13  C   UNL     1      15.905  40.627  47.219  0.00  0.00    +0.000 A 
ATOM     14  C   UNL     1      16.765  39.395  44.874  0.00  0.00    +0.000 A 
ATOM     15  C   UNL     1      15.532  39.308  46.948  0.00  0.00    +0.000 A 
ATOM     16  C   UNL     1      15.952  38.697  45.769  0.00  0.00    +0.000 A 
ENDBRANCH   9  12
ENDBRANCH   3   9
ENDBRANCH   1   8
BRANCH   2  17
ATOM     17  N   UNL     1      23.822  39.726  46.822  0.00  0.00    +0.000 N 
ATOM     18  C   UNL     1      24.767  40.719  47.025  0.00  0.00    +0.000 C 
ATOM     19  O   UNL     1      25.765  40.849  46.325  0.00  0.00    +0.000 OA
ATOM     20  H   UNL     1      23.090  39.618  47.472  0.00  0.00    +0.000 HD
BRANCH  18  21
ATOM     21  C   UNL     1      24.621  41.558  48.241  0.00  0.00    +0.000 A 
ATOM     22  C   UNL     1      25.782  42.145  48.766  0.00  0.00    +0.000 A 
ATOM     23  C   UNL     1      23.380  41.833  48.823  0.00  0.00    +0.000 A 
ATOM     24  C   UNL     1      25.704  43.018  49.849  0.00  0.00    +0.000 A 
ATOM     25  C   UNL     1      23.307  42.714  49.909  0.00  0.00    +0.000 A 
ATOM     26  C   UNL     1      24.465  43.309  50.413  0.00  0.00    +0.000 A 
ENDBRANCH  18  21
ENDBRANCH   2  17
BRANCH   2  27
ATOM     27  C   UNL     1      24.911  37.787  45.734  0.00  0.00    +0.000 C 
ATOM     28  O   UNL     1      26.033  37.866  45.267  0.00  0.00    +0.000 OA
ATOM     29  OXT UNL     1      24.429  36.669  46.329  0.00  0.00    +0.000 OA
ENDBRANCH   2  27
TORSDOF 6
ENDMDL
MODEL 4
REMARK VINA RESULT:      -6.2      2.257      3.736
REMARK  Name = 319853
REMARK  6 active torsions:
REMARK  status: ('A' for Active; 'I' for Inactive)
REMARK    1  A    between atoms: C_3  and  O_5
REMARK    2  A    between atoms: O_5  and  C_8
REMARK    3  A    between atoms: C_14  and  C_15
REMARK    4  A    between atoms: CA_16  and  N_17
REMARK    5  A    between atoms: CA_16  and  C_18
REMARK    6  A    between atoms: C_19  and  C_23
REMARK                            x       y       z     vdW  Elec       q    Type
REMARK                         _______ _______ _______ _____ _____    ______ ____
ROOT
ATOM      1  C   UNL     1      20.276  39.044  44.031  0.00  0.00    +0.000 C 
ATOM      2  CA  UNL     1      19.047  39.429  44.415  0.00  0.00    +0.000 C 
ENDROOT
BRANCH   1   8
ATOM      3  C   UNL     1      23.881  40.467  45.757  0.00  0.00    +0.000 A 
ATOM      4  C   UNL     1      22.894  41.382  45.391  0.00  0.00    +0.000 A 
ATOM      5  C   UNL     1      23.795  39.142  45.326  0.00  0.00    +0.000 A 
ATOM      6  C   UNL     1      21.745  40.938  44.726  0.00  0.00    +0.000 A 
ATOM      7  C   UNL     1      22.638  38.694  44.682  0.00  0.00    +0.000 A 
ATOM      8  C   UNL     1      21.586  39.581  44.423  0.00  0.00    +0.000 A 
BRANCH   3   9
ATOM      9  O   UNL     1      24.902  40.916  46.571  0.00  0.00    +0.000 OA
BRANCH   9  12
ATOM     10 BR   UNL     1      27.393  41.636  48.246  0.00  0.00    +0.000 Br
ATOM     11  C   UNL     1      25.562  41.939  48.634  0.00  0.00    +0.000 A 
ATOM     12  C   UNL     1      24.550  41.574  47.739  0.00  0.00    +0.000 A 
ATOM     13  C   UNL     1      25.241  42.541  49.857  0.00  0.00    +0.000 A 
ATOM     14  C   UNL     1      23.222  41.913  48.044  0.00  0.00    +0.000 A 
ATOM     15  C   UNL     1      23.908  42.804  50.180  0.00  0.00    +0.000 A 
ATOM     16  C   UNL     1      22.900  42.502  49.268  0.00  0.00    +0.000 A 
ENDBRANCH   9  12
ENDBRANCH   3   9
ENDBRANCH   1   8
BRANCH   2  17
ATOM     17  N   UNL     1      18.751  40.341  45.416  0.00  0.00    +0.000 N 
ATOM     18  C   UNL     1      18.399  41.649  45.122  0.00  0.00    +0.000 C 
ATOM     19  O   UNL     1      18.429  42.113  43.988  0.00  0.00    +0.000 OA
ATOM     20  H   UNL     1      18.793  40.054  46.357  0.00  0.00    +0.000 HD
BRANCH  18  21
ATOM     21  C   UNL     1      18.122  42.552  46.267  0.00  0.00    +0.000 A 
ATOM     22  C   UNL     1      19.106  42.661  47.260  0.00  0.00    +0.000 A 
ATOM     23  C   UNL     1      16.965  43.335  46.345  0.00  0.00    +0.000 A 
ATOM     24  C   UNL     1      18.950  43.560  48.313  0.00  0.00    +0.000 A 
ATOM     25  C   UNL     1      16.816  44.240  47.403  0.00  0.00    +0.000 A 
ATOM     26  C   UNL     1      17.809  44.356  48.378  0.00  0.00    +0.000 A 
ENDBRANCH  18  21
ENDBRANCH   2  17
BRANCH   2  27
ATOM     27  C   UNL     1      17.907  38.792  43.678  0.00  0.00    +0.000 C 
ATOM     28  O   UNL     1      17.074  39.385  43.016  0.00  0.00    +0.000 OA
ATOM     29  OXT UNL     1      17.907  37.447  43.845  0.00  0.00    +0.000 OA
ENDBRANCH   2  27
TORSDOF 6
ENDMDL
MODEL 5
REMARK VINA RESULT:      -5.7      2.025      2.653
REMARK  Name = 319853
REMARK  6 active torsions:
REMARK  status: ('A' for Active; 'I' for Inactive)
REMARK    1  A    between atoms: C_3  and  O_5
REMARK    2  A    between atoms: O_5  and  C_8
REMARK    3  A    between atoms: C_14  and  C_15
REMARK    4  A    between atoms: CA_16  and  N_17
REMARK    5  A    between atoms: CA_16  and  C_18
REMARK    6  A    between atoms: C_19  and  C_23
REMARK                            x       y       z     vdW  Elec       q    Type
REMARK                         _______ _______ _______ _____ _____    ______ ____
ROOT
ATOM      1  C   UNL     1      18.847  43.527  45.626  0.00  0.00    +0.000 C 
ATOM      2  CA  UNL     1      17.874  42.817  45.031  0.00  0.00    +0.000 C 
ENDROOT
BRANCH   1   8
ATOM      3  C   UNL     1      22.056  41.605  47.627  0.00  0.00    +0.000 A 
ATOM      4  C   UNL     1      20.855  41.805  48.305  0.00  0.00    +0.000 A 
ATOM      5  C   UNL     1      22.287  42.254  46.412  0.00  0.00    +0.000 A 
ATOM      6  C   UNL     1      19.823  42.529  47.694  0.00  0.00    +0.000 A 
ATOM      7  C   UNL     1      21.249  42.958  45.793  0.00  0.00    +0.000 A 
ATOM      8  C   UNL     1      19.997  43.057  46.410  0.00  0.00    +0.000 A 
BRANCH   3   9
ATOM      9  O   UNL     1      22.970  40.732  48.184  0.00  0.00    +0.000 OA
BRANCH   9  12
ATOM     10 BR   UNL     1      23.850  42.711  50.384  0.00  0.00    +0.000 Br
ATOM     11  C   UNL     1      24.867  41.968  48.966  0.00  0.00    +0.000 A 
ATOM     12  C   UNL     1      24.314  41.049  48.066  0.00  0.00    +0.000 A 
ATOM     13  C   UNL     1      26.202  42.369  48.837  0.00  0.00    +0.000 A 
ATOM     14  C   UNL     1      25.147  40.465  47.099  0.00  0.00    +0.000 A 
ATOM     15  C   UNL     1      26.999  41.834  47.821  0.00  0.00    +0.000 A 
ATOM     16  C   UNL     1      26.475  40.873  46.961  0.00  0.00    +0.000 A 
ENDBRANCH   9  12
ENDBRANCH   3   9
ENDBRANCH   1   8
BRANCH   2  17
ATOM     17  N   UNL     1      17.835  41.438  44.892  0.00  0.00    +0.000 N 
ATOM     18  C   UNL     1      17.007  40.656  45.682  0.00  0.00    +0.000 C 
ATOM     19  O   UNL     1      16.346  41.104  46.612  0.00  0.00    +0.000 OA
ATOM     20  H   UNL     1      18.408  41.005  44.219  0.00  0.00    +0.000 HD
BRANCH  18  21
ATOM     21  C   UNL     1      17.054  39.187  45.470  0.00  0.00    +0.000 A 
ATOM     22  C   UNL     1      17.941  38.701  44.498  0.00  0.00    +0.000 A 
ATOM     23  C   UNL     1      16.310  38.290  46.243  0.00  0.00    +0.000 A 
ATOM     24  C   UNL     1      18.103  37.329  44.313  0.00  0.00    +0.000 A 
ATOM     25  C   UNL     1      16.480  36.913  46.056  0.00  0.00    +0.000 A 
ATOM     26  C   UNL     1      17.380  36.437  45.100  0.00  0.00    +0.000 A 
ENDBRANCH  18  21
ENDBRANCH   2  17
BRANCH   2  27
ATOM     27  C   UNL     1      16.738  43.617  44.467  0.00  0.00    +0.000 C 
ATOM     28  O   UNL     1      16.303  43.525  43.333  0.00  0.00    +0.000 OA
ATOM     29  OXT UNL     1      16.245  44.482  45.386  0.00  0.00    +0.000 OA
ENDBRANCH   2  27
TORSDOF 6
ENDMDL
