MODEL 1
REMARK VINA RESULT:      -8.6      0.000      0.000
REMARK  Name = 319292
REMARK  5 active torsions:
REMARK  status: ('A' for Active; 'I' for Inactive)
REMARK    1  A    between atoms: C_2  and  C_4
REMARK    2  A    between atoms: N_3  and  CA_5
REMARK    3  A    between atoms: CA_5  and  C_8
REMARK    4  A    between atoms: C_9  and  C_14
REMARK    5  A    between atoms: C_18  and  C_20
REMARK                            x       y       z     vdW  Elec       q    Type
REMARK                         _______ _______ _______ _____ _____    ______ ____
ROOT
ATOM      1  CA  UNL     1      22.741  41.468  47.573  0.00  0.00    +0.000 C 
ATOM      2  C   UNL     1      23.260  40.657  46.621  0.00  0.00    +0.000 C 
ENDROOT
BRANCH   2   3
ATOM      3  C   UNL     1      22.546  40.181  45.485  0.00  0.00    +0.000 A 
ATOM      4  O   UNL     1      21.202  40.390  45.273  0.00  0.00    +0.000 OA
ATOM      5  C   UNL     1      23.031  39.460  44.402  0.00  0.00    +0.000 A 
ATOM      6  C   UNL     1      20.852  39.847  44.070  0.00  0.00    +0.000 A 
ATOM      7  C   UNL     1      21.959  39.256  43.501  0.00  0.00    +0.000 A 
BRANCH   6   8
ATOM      8  C   UNL     1      19.448  39.965  43.686  0.00  0.00    +0.000 A 
ATOM      9  C   UNL     1      18.979  41.076  42.969  0.00  0.00    +0.000 A 
ATOM     10  C   UNL     1      18.523  38.976  44.058  0.00  0.00    +0.000 A 
ATOM     11  C   UNL     1      17.624  41.212  42.661  0.00  0.00    +0.000 A 
ATOM     12  C   UNL     1      17.166  39.110  43.748  0.00  0.00    +0.000 A 
ATOM     13  C   UNL     1      16.717  40.231  43.056  0.00  0.00    +0.000 A 
ENDBRANCH   6   8
ENDBRANCH   2   3
BRANCH   1  16
ATOM     14  O   UNL     1      21.347  43.471  45.859  0.00  0.00    +0.000 OA
ATOM     15  C   UNL     1      20.779  42.782  46.700  0.00  0.00    +0.000 C 
ATOM     16  N   UNL     1      21.405  41.857  47.500  0.00  0.00    +0.000 N 
ATOM     17  H   UNL     1      20.808  41.389  48.128  0.00  0.00    +0.000 HD
BRANCH  15  18
ATOM     18  C   UNL     1      19.306  42.910  46.845  0.00  0.00    +0.000 A 
ATOM     19  C   UNL     1      18.521  41.802  46.496  0.00  0.00    +0.000 A 
ATOM     20  C   UNL     1      18.690  44.088  47.282  0.00  0.00    +0.000 A 
ATOM     21  C   UNL     1      17.134  41.853  46.611  0.00  0.00    +0.000 A 
ATOM     22  C   UNL     1      17.298  44.138  47.397  0.00  0.00    +0.000 A 
ATOM     23  C   UNL     1      16.525  43.023  47.068  0.00  0.00    +0.000 A 
ENDBRANCH  15  18
ENDBRANCH   1  16
BRANCH   1  24
ATOM     24  C   UNL     1      23.763  41.833  48.626  0.00  0.00    +0.000 C 
ATOM     25  O   UNL     1      23.473  42.516  49.605  0.00  0.00    +0.000 OA
ATOM     26  OXT UNL     1      25.017  41.380  48.494  0.00  0.00    +0.000 OA
ENDBRANCH   1  24
TORSDOF 5
ENDMDL
MODEL 2
REMARK VINA RESULT:      -7.9      2.544      6.602
REMARK  Name = 319292
REMARK  5 active torsions:
REMARK  status: ('A' for Active; 'I' for Inactive)
REMARK    1  A    between atoms: C_2  and  C_4
REMARK    2  A    between atoms: N_3  and  CA_5
REMARK    3  A    between atoms: CA_5  and  C_8
REMARK    4  A    between atoms: C_9  and  C_14
REMARK    5  A    between atoms: C_18  and  C_20
REMARK                            x       y       z     vdW  Elec       q    Type
REMARK                         _______ _______ _______ _____ _____    ______ ____
ROOT
ATOM      1  CA  UNL     1      19.604  42.076  43.850  0.00  0.00    +0.000 C 
ATOM      2  C   UNL     1      20.686  42.544  44.516  0.00  0.00    +0.000 C 
ENDROOT
BRANCH   2   3
ATOM      3  C   UNL     1      21.286  41.904  45.636  0.00  0.00    +0.000 A 
ATOM      4  O   UNL     1      22.298  42.453  46.391  0.00  0.00    +0.000 OA
ATOM      5  C   UNL     1      20.984  40.665  46.186  0.00  0.00    +0.000 A 
ATOM      6  C   UNL     1      22.604  41.601  47.413  0.00  0.00    +0.000 A 
ATOM      7  C   UNL     1      21.813  40.477  47.318  0.00  0.00    +0.000 A 
BRANCH   6   8
ATOM      8  C   UNL     1      23.674  42.022  48.313  0.00  0.00    +0.000 A 
ATOM      9  C   UNL     1      23.393  42.578  49.570  0.00  0.00    +0.000 A 
ATOM     10  C   UNL     1      25.018  41.907  47.924  0.00  0.00    +0.000 A 
ATOM     11  C   UNL     1      24.419  43.035  50.399  0.00  0.00    +0.000 A 
ATOM     12  C   UNL     1      26.047  42.362  48.754  0.00  0.00    +0.000 A 
ATOM     13  C   UNL     1      25.747  42.933  49.987  0.00  0.00    +0.000 A 
ENDBRANCH   6   8
ENDBRANCH   2   3
BRANCH   1  16
ATOM     14  O   UNL     1      16.864  41.581  44.916  0.00  0.00    +0.000 OA
ATOM     15  C   UNL     1      17.706  40.702  44.768  0.00  0.00    +0.000 C 
ATOM     16  N   UNL     1      18.973  40.911  44.281  0.00  0.00    +0.000 N 
ATOM     17  H   UNL     1      19.530  40.101  44.227  0.00  0.00    +0.000 HD
BRANCH  15  18
ATOM     18  C   UNL     1      17.331  39.300  45.089  0.00  0.00    +0.000 A 
ATOM     19  C   UNL     1      17.958  38.278  44.363  0.00  0.00    +0.000 A 
ATOM     20  C   UNL     1      16.371  38.978  46.055  0.00  0.00    +0.000 A 
ATOM     21  C   UNL     1      17.657  36.942  44.615  0.00  0.00    +0.000 A 
ATOM     22  C   UNL     1      16.069  37.637  46.307  0.00  0.00    +0.000 A 
ATOM     23  C   UNL     1      16.713  36.624  45.594  0.00  0.00    +0.000 A 
ENDBRANCH  15  18
ENDBRANCH   1  16
BRANCH   1  24
ATOM     24  C   UNL     1      19.233  42.958  42.678  0.00  0.00    +0.000 C 
ATOM     25  O   UNL     1      19.938  43.899  42.325  0.00  0.00    +0.000 OA
ATOM     26  OXT UNL     1      18.111  42.691  41.997  0.00  0.00    +0.000 OA
ENDBRANCH   1  24
TORSDOF 5
ENDMDL
MODEL 3
REMARK VINA RESULT:      -7.8      2.587      6.815
REMARK  Name = 319292
REMARK  5 active torsions:
REMARK  status: ('A' for Active; 'I' for Inactive)
REMARK    1  A    between atoms: C_2  and  C_4
REMARK    2  A    between atoms: N_3  and  CA_5
REMARK    3  A    between atoms: CA_5  and  C_8
REMARK    4  A    between atoms: C_9  and  C_14
REMARK    5  A    between atoms: C_18  and  C_20
REMARK                            x       y       z     vdW  Elec       q    Type
REMARK                         _______ _______ _______ _____ _____    ______ ____
ROOT
ATOM      1  CA  UNL     1      18.026  42.399  46.335  0.00  0.00    +0.000 C 
ATOM      2  C   UNL     1      19.164  42.869  46.899  0.00  0.00    +0.000 C 
ENDROOT
BRANCH   2   3
ATOM      3  C   UNL     1      20.331  42.090  47.136  0.00  0.00    +0.000 A 
ATOM      4  O   UNL     1      21.470  42.568  47.745  0.00  0.00    +0.000 OA
ATOM      5  C   UNL     1      20.551  40.752  46.836  0.00  0.00    +0.000 A 
ATOM      6  C   UNL     1      22.374  41.551  47.861  0.00  0.00    +0.000 A 
ATOM      7  C   UNL     1      21.842  40.408  47.304  0.00  0.00    +0.000 A 
BRANCH   6   8
ATOM      8  C   UNL     1      23.655  41.885  48.477  0.00  0.00    +0.000 A 
ATOM      9  C   UNL     1      23.718  42.538  49.717  0.00  0.00    +0.000 A 
ATOM     10  C   UNL     1      24.859  41.586  47.821  0.00  0.00    +0.000 A 
ATOM     11  C   UNL     1      24.945  42.910  50.270  0.00  0.00    +0.000 A 
ATOM     12  C   UNL     1      26.089  41.955  48.375  0.00  0.00    +0.000 A 
ATOM     13  C   UNL     1      26.130  42.624  49.595  0.00  0.00    +0.000 A 
ENDBRANCH   6   8
ENDBRANCH   2   3
BRANCH   1  16
ATOM     14  O   UNL     1      16.041  40.298  47.065  0.00  0.00    +0.000 OA
ATOM     15  C   UNL     1      17.003  40.100  46.330  0.00  0.00    +0.000 C 
ATOM     16  N   UNL     1      17.928  41.054  45.985  0.00  0.00    +0.000 N 
ATOM     17  H   UNL     1      18.643  40.734  45.390  0.00  0.00    +0.000 HD
BRANCH  15  18
ATOM     18  C   UNL     1      17.167  38.753  45.726  0.00  0.00    +0.000 A 
ATOM     19  C   UNL     1      18.081  38.622  44.670  0.00  0.00    +0.000 A 
ATOM     20  C   UNL     1      16.434  37.639  46.151  0.00  0.00    +0.000 A 
ATOM     21  C   UNL     1      18.287  37.388  44.060  0.00  0.00    +0.000 A 
ATOM     22  C   UNL     1      16.641  36.401  45.538  0.00  0.00    +0.000 A 
ATOM     23  C   UNL     1      17.568  36.275  44.502  0.00  0.00    +0.000 A 
ENDBRANCH  15  18
ENDBRANCH   1  16
BRANCH   1  24
ATOM     24  C   UNL     1      16.982  43.482  46.178  0.00  0.00    +0.000 C 
ATOM     25  O   UNL     1      16.517  44.083  47.142  0.00  0.00    +0.000 OA
ATOM     26  OXT UNL     1      16.567  43.806  44.945  0.00  0.00    +0.000 OA
ENDBRANCH   1  24
TORSDOF 5
ENDMDL
MODEL 4
REMARK VINA RESULT:      -7.1      2.327      5.565
REMARK  Name = 319292
REMARK  5 active torsions:
REMARK  status: ('A' for Active; 'I' for Inactive)
REMARK    1  A    between atoms: C_2  and  C_4
REMARK    2  A    between atoms: N_3  and  CA_5
REMARK    3  A    between atoms: CA_5  and  C_8
REMARK    4  A    between atoms: C_9  and  C_14
REMARK    5  A    between atoms: C_18  and  C_20
REMARK                            x       y       z     vdW  Elec       q    Type
REMARK                         _______ _______ _______ _____ _____    ______ ____
ROOT
ATOM      1  CA  UNL     1      18.201  38.740  44.988  0.00  0.00    +0.000 C 
ATOM      2  C   UNL     1      19.297  38.416  44.261  0.00  0.00    +0.000 C 
ENDROOT
BRANCH   2   3
ATOM      3  C   UNL     1      20.467  39.220  44.158  0.00  0.00    +0.000 A 
ATOM      4  O   UNL     1      21.253  39.584  45.228  0.00  0.00    +0.000 OA
ATOM      5  C   UNL     1      21.041  39.765  43.017  0.00  0.00    +0.000 A 
ATOM      6  C   UNL     1      22.316  40.310  44.773  0.00  0.00    +0.000 A 
ATOM      7  C   UNL     1      22.218  40.447  43.405  0.00  0.00    +0.000 A 
BRANCH   6   8
ATOM      8  C   UNL     1      23.254  40.793  45.782  0.00  0.00    +0.000 A 
ATOM      9  C   UNL     1      24.623  40.493  45.708  0.00  0.00    +0.000 A 
ATOM     10  C   UNL     1      22.799  41.548  46.874  0.00  0.00    +0.000 A 
ATOM     11  C   UNL     1      25.504  40.906  46.709  0.00  0.00    +0.000 A 
ATOM     12  C   UNL     1      23.680  41.964  47.877  0.00  0.00    +0.000 A 
ATOM     13  C   UNL     1      25.030  41.636  47.798  0.00  0.00    +0.000 A 
ENDBRANCH   6   8
ENDBRANCH   2   3
BRANCH   1  16
ATOM     14  O   UNL     1      16.599  41.209  44.516  0.00  0.00    +0.000 OA
ATOM     15  C   UNL     1      17.403  41.085  45.433  0.00  0.00    +0.000 C 
ATOM     16  N   UNL     1      18.152  39.956  45.665  0.00  0.00    +0.000 N 
ATOM     17  H   UNL     1      18.755  40.018  46.440  0.00  0.00    +0.000 HD
BRANCH  15  18
ATOM     18  C   UNL     1      17.557  42.204  46.398  0.00  0.00    +0.000 A 
ATOM     19  C   UNL     1      18.690  42.198  47.224  0.00  0.00    +0.000 A 
ATOM     20  C   UNL     1      16.612  43.228  46.523  0.00  0.00    +0.000 A 
ATOM     21  C   UNL     1      18.899  43.218  48.147  0.00  0.00    +0.000 A 
ATOM     22  C   UNL     1      16.822  44.252  47.451  0.00  0.00    +0.000 A 
ATOM     23  C   UNL     1      17.963  44.250  48.255  0.00  0.00    +0.000 A 
ENDBRANCH  15  18
ENDBRANCH   1  16
BRANCH   1  24
ATOM     24  C   UNL     1      17.144  37.660  44.932  0.00  0.00    +0.000 C 
ATOM     25  O   UNL     1      17.305  36.625  44.291  0.00  0.00    +0.000 OA
ATOM     26  OXT UNL     1      16.006  37.833  45.618  0.00  0.00    +0.000 OA
ENDBRANCH   1  24
TORSDOF 5
ENDMDL
MODEL 5
REMARK VINA RESULT:      -6.5      1.373      1.855
REMARK  Name = 319292
REMARK  5 active torsions:
REMARK  status: ('A' for Active; 'I' for Inactive)
REMARK    1  A    between atoms: C_2  and  C_4
REMARK    2  A    between atoms: N_3  and  CA_5
REMARK    3  A    between atoms: CA_5  and  C_8
REMARK    4  A    between atoms: C_9  and  C_14
REMARK    5  A    between atoms: C_18  and  C_20
REMARK                            x       y       z     vdW  Elec       q    Type
REMARK                         _______ _______ _______ _____ _____    ______ ____
ROOT
ATOM      1  CA  UNL     1      22.609  41.577  46.774  0.00  0.00    +0.000 C 
ATOM      2  C   UNL     1      22.792  40.556  45.903  0.00  0.00    +0.000 C 
ENDROOT
BRANCH   2   3
ATOM      3  C   UNL     1      21.773  40.002  45.079  0.00  0.00    +0.000 A 
ATOM      4  O   UNL     1      20.552  39.569  45.545  0.00  0.00    +0.000 OA
ATOM      5  C   UNL     1      21.786  39.807  43.704  0.00  0.00    +0.000 A 
ATOM      6  C   UNL     1      19.798  39.145  44.488  0.00  0.00    +0.000 A 
ATOM      7  C   UNL     1      20.531  39.273  43.328  0.00  0.00    +0.000 A 
BRANCH   6   8
ATOM      8  C   UNL     1      18.466  38.635  44.801  0.00  0.00    +0.000 A 
ATOM      9  C   UNL     1      17.493  39.455  45.393  0.00  0.00    +0.000 A 
ATOM     10  C   UNL     1      18.138  37.294  44.545  0.00  0.00    +0.000 A 
ATOM     11  C   UNL     1      16.242  38.944  45.747  0.00  0.00    +0.000 A 
ATOM     12  C   UNL     1      16.886  36.781  44.898  0.00  0.00    +0.000 A 
ATOM     13  C   UNL     1      15.942  37.604  45.505  0.00  0.00    +0.000 A 
ENDBRANCH   6   8
ENDBRANCH   2   3
BRANCH   1  16
ATOM     14  O   UNL     1      20.964  43.333  45.014  0.00  0.00    +0.000 OA
ATOM     15  C   UNL     1      20.596  42.935  46.114  0.00  0.00    +0.000 C 
ATOM     16  N   UNL     1      21.341  42.129  46.940  0.00  0.00    +0.000 N 
ATOM     17  H   UNL     1      20.904  41.901  47.792  0.00  0.00    +0.000 HD
BRANCH  15  18
ATOM     18  C   UNL     1      19.235  43.304  46.582  0.00  0.00    +0.000 A 
ATOM     19  C   UNL     1      18.147  42.905  45.792  0.00  0.00    +0.000 A 
ATOM     20  C   UNL     1      19.011  44.046  47.748  0.00  0.00    +0.000 A 
ATOM     21  C   UNL     1      16.844  43.214  46.173  0.00  0.00    +0.000 A 
ATOM     22  C   UNL     1      17.703  44.355  48.129  0.00  0.00    +0.000 A 
ATOM     23  C   UNL     1      16.625  43.936  47.349  0.00  0.00    +0.000 A 
ENDBRANCH  15  18
ENDBRANCH   1  16
BRANCH   1  24
ATOM     24  C   UNL     1      23.894  41.966  47.470  0.00  0.00    +0.000 C 
ATOM     25  O   UNL     1      24.991  41.829  46.936  0.00  0.00    +0.000 OA
ATOM     26  OXT UNL     1      23.828  42.493  48.701  0.00  0.00    +0.000 OA
ENDBRANCH   1  24
TORSDOF 5
ENDMDL
MODEL 6
REMARK VINA RESULT:      -6.3      2.439      6.603
REMARK  Name = 319292
REMARK  5 active torsions:
REMARK  status: ('A' for Active; 'I' for Inactive)
REMARK    1  A    between atoms: C_2  and  C_4
REMARK    2  A    between atoms: N_3  and  CA_5
REMARK    3  A    between atoms: CA_5  and  C_8
REMARK    4  A    between atoms: C_9  and  C_14
REMARK    5  A    between atoms: C_18  and  C_20
REMARK                            x       y       z     vdW  Elec       q    Type
REMARK                         _______ _______ _______ _____ _____    ______ ____
ROOT
ATOM      1  CA  UNL     1      18.814  42.255  43.630  0.00  0.00    +0.000 C 
ATOM      2  C   UNL     1      19.701  42.988  44.344  0.00  0.00    +0.000 C 
ENDROOT
BRANCH   2   3
ATOM      3  C   UNL     1      20.187  42.638  45.635  0.00  0.00    +0.000 A 
ATOM      4  O   UNL     1      21.521  42.502  45.949  0.00  0.00    +0.000 OA
ATOM      5  C   UNL     1      19.461  42.391  46.792  0.00  0.00    +0.000 A 
ATOM      6  C   UNL     1      21.638  42.211  47.278  0.00  0.00    +0.000 A 
ATOM      7  C   UNL     1      20.380  42.129  47.835  0.00  0.00    +0.000 A 
BRANCH   6   8
ATOM      8  C   UNL     1      22.993  42.018  47.786  0.00  0.00    +0.000 A 
ATOM      9  C   UNL     1      23.985  41.409  47.002  0.00  0.00    +0.000 A 
ATOM     10  C   UNL     1      23.327  42.412  49.090  0.00  0.00    +0.000 A 
ATOM     11  C   UNL     1      25.261  41.171  47.516  0.00  0.00    +0.000 A 
ATOM     12  C   UNL     1      24.605  42.177  49.606  0.00  0.00    +0.000 A 
ATOM     13  C   UNL     1      25.569  41.550  48.822  0.00  0.00    +0.000 A 
ENDBRANCH   6   8
ENDBRANCH   2   3
BRANCH   1  16
ATOM     14  O   UNL     1      19.661  39.404  43.438  0.00  0.00    +0.000 OA
ATOM     15  C   UNL     1      18.685  39.782  44.077  0.00  0.00    +0.000 C 
ATOM     16  N   UNL     1      18.278  41.090  44.175  0.00  0.00    +0.000 N 
ATOM     17  H   UNL     1      17.473  41.228  44.723  0.00  0.00    +0.000 HD
BRANCH  15  18
ATOM     18  C   UNL     1      17.906  38.775  44.843  0.00  0.00    +0.000 A 
ATOM     19  C   UNL     1      17.194  39.222  45.965  0.00  0.00    +0.000 A 
ATOM     20  C   UNL     1      17.882  37.419  44.501  0.00  0.00    +0.000 A 
ATOM     21  C   UNL     1      16.440  38.333  46.726  0.00  0.00    +0.000 A 
ATOM     22  C   UNL     1      17.125  36.527  45.265  0.00  0.00    +0.000 A 
ATOM     23  C   UNL     1      16.403  36.983  46.369  0.00  0.00    +0.000 A 
ENDBRANCH  15  18
ENDBRANCH   1  16
BRANCH   1  24
ATOM     24  C   UNL     1      18.529  42.869  42.277  0.00  0.00    +0.000 C 
ATOM     25  O   UNL     1      17.728  42.370  41.492  0.00  0.00    +0.000 OA
ATOM     26  OXT UNL     1      19.158  44.002  41.936  0.00  0.00    +0.000 OA
ENDBRANCH   1  24
TORSDOF 5
ENDMDL
MODEL 7
REMARK VINA RESULT:      -6.0      2.042      5.626
REMARK  Name = 319292
REMARK  5 active torsions:
REMARK  status: ('A' for Active; 'I' for Inactive)
REMARK    1  A    between atoms: C_2  and  C_4
REMARK    2  A    between atoms: N_3  and  CA_5
REMARK    3  A    between atoms: CA_5  and  C_8
REMARK    4  A    between atoms: C_9  and  C_14
REMARK    5  A    between atoms: C_18  and  C_20
REMARK                            x       y       z     vdW  Elec       q    Type
REMARK                         _______ _______ _______ _____ _____    ______ ____
ROOT
ATOM      1  CA  UNL     1      18.596  39.634  44.409  0.00  0.00    +0.000 C 
ATOM      2  C   UNL     1      19.827  39.219  44.028  0.00  0.00    +0.000 C 
ENDROOT
BRANCH   2   3
ATOM      3  C   UNL     1      21.046  39.854  44.399  0.00  0.00    +0.000 A 
ATOM      4  O   UNL     1      21.382  40.188  45.692  0.00  0.00    +0.000 OA
ATOM      5  C   UNL     1      22.103  40.235  43.583  0.00  0.00    +0.000 A 
ATOM      6  C   UNL     1      22.634  40.733  45.699  0.00  0.00    +0.000 A 
ATOM      7  C   UNL     1      23.114  40.784  44.409  0.00  0.00    +0.000 A 
BRANCH   6   8
ATOM      8  C   UNL     1      23.150  41.161  46.997  0.00  0.00    +0.000 A 
ATOM      9  C   UNL     1      24.321  40.605  47.534  0.00  0.00    +0.000 A 
ATOM     10  C   UNL     1      22.463  42.122  47.754  0.00  0.00    +0.000 A 
ATOM     11  C   UNL     1      24.774  40.973  48.803  0.00  0.00    +0.000 A 
ATOM     12  C   UNL     1      22.916  42.493  49.024  0.00  0.00    +0.000 A 
ATOM     13  C   UNL     1      24.067  41.913  49.550  0.00  0.00    +0.000 A 
ENDBRANCH   6   8
ENDBRANCH   2   3
BRANCH   1  16
ATOM     14  O   UNL     1      16.901  40.232  46.788  0.00  0.00    +0.000 OA
ATOM     15  C   UNL     1      17.673  41.040  46.282  0.00  0.00    +0.000 C 
ATOM     16  N   UNL     1      18.459  40.783  45.185  0.00  0.00    +0.000 N 
ATOM     17  H   UNL     1      19.022  41.538  44.899  0.00  0.00    +0.000 HD
BRANCH  15  18
ATOM     18  C   UNL     1      17.815  42.377  46.914  0.00  0.00    +0.000 A 
ATOM     19  C   UNL     1      16.745  43.274  46.780  0.00  0.00    +0.000 A 
ATOM     20  C   UNL     1      18.969  42.770  47.599  0.00  0.00    +0.000 A 
ATOM     21  C   UNL     1      16.810  44.543  47.350  0.00  0.00    +0.000 A 
ATOM     22  C   UNL     1      19.033  44.043  48.171  0.00  0.00    +0.000 A 
ATOM     23  C   UNL     1      17.956  44.923  48.052  0.00  0.00    +0.000 A 
ENDBRANCH  15  18
ENDBRANCH   1  16
BRANCH   1  24
ATOM     24  C   UNL     1      17.505  38.725  43.888  0.00  0.00    +0.000 C 
ATOM     25  O   UNL     1      16.572  39.150  43.212  0.00  0.00    +0.000 OA
ATOM     26  OXT UNL     1      17.571  37.414  44.159  0.00  0.00    +0.000 OA
ENDBRANCH   1  24
TORSDOF 5
ENDMDL
MODEL 8
REMARK VINA RESULT:      -6.0      2.511      5.481
REMARK  Name = 319292
REMARK  5 active torsions:
REMARK  status: ('A' for Active; 'I' for Inactive)
REMARK    1  A    between atoms: C_2  and  C_4
REMARK    2  A    between atoms: N_3  and  CA_5
REMARK    3  A    between atoms: CA_5  and  C_8
REMARK    4  A    between atoms: C_9  and  C_14
REMARK    5  A    between atoms: C_18  and  C_20
REMARK                            x       y       z     vdW  Elec       q    Type
REMARK                         _______ _______ _______ _____ _____    ______ ____
ROOT
ATOM      1  CA  UNL     1      18.127  43.089  46.712  0.00  0.00    +0.000 C 
ATOM      2  C   UNL     1      19.335  43.531  46.287  0.00  0.00    +0.000 C 
ENDROOT
BRANCH   2   3
ATOM      3  C   UNL     1      20.283  42.741  45.579  0.00  0.00    +0.000 A 
ATOM      4  O   UNL     1      21.059  41.761  46.156  0.00  0.00    +0.000 OA
ATOM      5  C   UNL     1      20.596  42.776  44.227  0.00  0.00    +0.000 A 
ATOM      6  C   UNL     1      21.818  41.167  45.189  0.00  0.00    +0.000 A 
ATOM      7  C   UNL     1      21.563  41.773  43.978  0.00  0.00    +0.000 A 
BRANCH   6   8
ATOM      8  C   UNL     1      22.719  40.105  45.628  0.00  0.00    +0.000 A 
ATOM      9  C   UNL     1      23.324  39.236  44.708  0.00  0.00    +0.000 A 
ATOM     10  C   UNL     1      22.975  39.909  46.994  0.00  0.00    +0.000 A 
ATOM     11  C   UNL     1      24.134  38.184  45.140  0.00  0.00    +0.000 A 
ATOM     12  C   UNL     1      23.788  38.858  47.428  0.00  0.00    +0.000 A 
ATOM     13  C   UNL     1      24.361  37.991  46.501  0.00  0.00    +0.000 A 
ENDBRANCH   6   8
ENDBRANCH   2   3
BRANCH   1  16
ATOM     14  O   UNL     1      16.847  41.731  44.388  0.00  0.00    +0.000 OA
ATOM     15  C   UNL     1      17.172  41.153  45.419  0.00  0.00    +0.000 C 
ATOM     16  N   UNL     1      17.760  41.762  46.501  0.00  0.00    +0.000 N 
ATOM     17  H   UNL     1      17.956  41.159  47.254  0.00  0.00    +0.000 HD
BRANCH  15  18
ATOM     18  C   UNL     1      16.966  39.684  45.504  0.00  0.00    +0.000 A 
ATOM     19  C   UNL     1      17.649  38.879  44.581  0.00  0.00    +0.000 A 
ATOM     20  C   UNL     1      16.107  39.094  46.438  0.00  0.00    +0.000 A 
ATOM     21  C   UNL     1      17.504  37.494  44.606  0.00  0.00    +0.000 A 
ATOM     22  C   UNL     1      15.962  37.705  46.461  0.00  0.00    +0.000 A 
ATOM     23  C   UNL     1      16.662  36.908  45.553  0.00  0.00    +0.000 A 
ENDBRANCH  15  18
ENDBRANCH   1  16
BRANCH   1  24
ATOM     24  C   UNL     1      17.333  44.179  47.396  0.00  0.00    +0.000 C 
ATOM     25  O   UNL     1      16.106  44.163  47.436  0.00  0.00    +0.000 OA
ATOM     26  OXT UNL     1      17.992  45.183  47.991  0.00  0.00    +0.000 OA
ENDBRANCH   1  24
TORSDOF 5
ENDMDL
MODEL 9
REMARK VINA RESULT:      -5.8      2.196      5.048
REMARK  Name = 319292
REMARK  5 active torsions:
REMARK  status: ('A' for Active; 'I' for Inactive)
REMARK    1  A    between atoms: C_2  and  C_4
REMARK    2  A    between atoms: N_3  and  CA_5
REMARK    3  A    between atoms: CA_5  and  C_8
REMARK    4  A    between atoms: C_9  and  C_14
REMARK    5  A    between atoms: C_18  and  C_20
REMARK                            x       y       z     vdW  Elec       q    Type
REMARK                         _______ _______ _______ _____ _____    ______ ____
ROOT
ATOM      1  CA  UNL     1      23.712  38.820  46.014  0.00  0.00    +0.000 C 
ATOM      2  C   UNL     1      22.821  38.983  45.006  0.00  0.00    +0.000 C 
ENDROOT
BRANCH   2   3
ATOM      3  C   UNL     1      21.999  40.131  44.832  0.00  0.00    +0.000 A 
ATOM      4  O   UNL     1      20.874  40.399  45.579  0.00  0.00    +0.000 OA
ATOM      5  C   UNL     1      22.157  41.176  43.931  0.00  0.00    +0.000 A 
ATOM      6  C   UNL     1      20.354  41.599  45.187  0.00  0.00    +0.000 A 
ATOM      7  C   UNL     1      21.119  42.111  44.163  0.00  0.00    +0.000 A 
BRANCH   6   8
ATOM      8  C   UNL     1      19.140  42.037  45.871  0.00  0.00    +0.000 A 
ATOM      9  C   UNL     1      17.936  41.329  45.744  0.00  0.00    +0.000 A 
ATOM     10  C   UNL     1      19.145  43.204  46.651  0.00  0.00    +0.000 A 
ATOM     11  C   UNL     1      16.765  41.789  46.350  0.00  0.00    +0.000 A 
ATOM     12  C   UNL     1      17.974  43.665  47.261  0.00  0.00    +0.000 A 
ATOM     13  C   UNL     1      16.783  42.961  47.103  0.00  0.00    +0.000 A 
ENDBRANCH   6   8
ENDBRANCH   2   3
BRANCH   1  16
ATOM     14  O   UNL     1      25.898  40.753  46.621  0.00  0.00    +0.000 OA
ATOM     15  C   UNL     1      24.853  40.685  47.259  0.00  0.00    +0.000 C 
ATOM     16  N   UNL     1      23.836  39.799  46.996  0.00  0.00    +0.000 N 
ATOM     17  H   UNL     1      23.065  39.870  47.604  0.00  0.00    +0.000 HD
BRANCH  15  18
ATOM     18  C   UNL     1      24.635  41.650  48.368  0.00  0.00    +0.000 A 
ATOM     19  C   UNL     1      25.766  42.262  48.927  0.00  0.00    +0.000 A 
ATOM     20  C   UNL     1      23.365  41.940  48.878  0.00  0.00    +0.000 A 
ATOM     21  C   UNL     1      25.634  43.179  49.966  0.00  0.00    +0.000 A 
ATOM     22  C   UNL     1      23.234  42.861  49.921  0.00  0.00    +0.000 A 
ATOM     23  C   UNL     1      24.363  43.481  50.459  0.00  0.00    +0.000 A 
ENDBRANCH  15  18
ENDBRANCH   1  16
BRANCH   1  24
ATOM     24  C   UNL     1      24.464  37.512  45.899  0.00  0.00    +0.000 C 
ATOM     25  O   UNL     1      25.487  37.407  45.228  0.00  0.00    +0.000 OA
ATOM     26  OXT UNL     1      24.007  36.443  46.565  0.00  0.00    +0.000 OA
ENDBRANCH   1  24
TORSDOF 5
ENDMDL
