MODEL 1
REMARK VINA RESULT:      -8.4      0.000      0.000
REMARK  Name = 323275
REMARK  10 active torsions:
REMARK  status: ('A' for Active; 'I' for Inactive)
REMARK    1  A    between atoms: C_2  and  C_5
REMARK    2  A    between atoms: C_6  and  O_8
REMARK    3  A    between atoms: O_8  and  C_11
REMARK    4  A    between atoms: C_10  and  N_13
REMARK    5  A    between atoms: C_18  and  C_19
REMARK    6  A    between atoms: CA_20  and  N_21
REMARK    7  A    between atoms: CA_20  and  C_22
REMARK    8  A    between atoms: C_23  and  C_27
REMARK    9  A    between atoms: C_27  and  C_28
REMARK   10  A    between atoms: C_28  and  C_29
REMARK                            x       y       z     vdW  Elec       q    Type
REMARK                         _______ _______ _______ _____ _____    ______ ____
ROOT
ATOM      1  C   UNL     1      18.908  41.515  47.113  0.00  0.00    +0.000 A 
ATOM      2  C   UNL     1      19.901  40.542  46.972  0.00  0.00    +0.000 A 
ATOM      3  C   UNL     1      19.244  42.791  47.566  0.00  0.00    +0.000 A 
ATOM      4  C   UNL     1      21.206  40.807  47.417  0.00  0.00    +0.000 A 
ATOM      5  C   UNL     1      20.516  43.028  48.071  0.00  0.00    +0.000 A 
ATOM      6  C   UNL     1      21.502  42.039  48.014  0.00  0.00    +0.000 A 
ENDROOT
BRANCH   6   7
ATOM      7  C   UNL     1      22.773  42.276  48.710  0.00  0.00    +0.000 C 
ATOM      8  CA  UNL     1      24.042  42.045  48.323  0.00  0.00    +0.000 C 
BRANCH   8   9
ATOM      9  N   UNL     1      24.479  41.525  47.112  0.00  0.00    +0.000 N 
ATOM     10  C   UNL     1      24.516  40.181  46.787  0.00  0.00    +0.000 C 
ATOM     11  O   UNL     1      24.044  39.290  47.483  0.00  0.00    +0.000 OA
ATOM     12  H   UNL     1      24.786  42.164  46.428  0.00  0.00    +0.000 HD
BRANCH  10  13
ATOM     13  C   UNL     1      25.097  39.883  45.415  0.00  0.00    +0.000 C 
BRANCH  13  14
ATOM     14  C   UNL     1      24.245  40.589  44.354  0.00  0.00    +0.000 C 
BRANCH  14  15
ATOM     15  C   UNL     1      22.745  40.380  44.497  0.00  0.00    +0.000 C 
ATOM     16  C   UNL     1      22.299  39.061  43.861  0.00  0.00    +0.000 C 
ATOM     17  C   UNL     1      21.889  41.394  43.747  0.00  0.00    +0.000 C 
ATOM     18  C   UNL     1      20.794  39.217  43.675  0.00  0.00    +0.000 C 
ATOM     19  C   UNL     1      20.521  40.722  43.686  0.00  0.00    +0.000 C 
ENDBRANCH  14  15
ENDBRANCH  13  14
ENDBRANCH  10  13
ENDBRANCH   8   9
BRANCH   8  20
ATOM     20  C   UNL     1      25.081  42.379  49.363  0.00  0.00    +0.000 C 
ATOM     21  O   UNL     1      24.856  42.862  50.460  0.00  0.00    +0.000 OA
ATOM     22  OXT UNL     1      26.331  42.089  48.932  0.00  0.00    +0.000 OA
ENDBRANCH   8  20
ENDBRANCH   6   7
BRANCH   1  23
ATOM     23  O   UNL     1      17.589  41.163  46.881  0.00  0.00    +0.000 OA
BRANCH  23  25
ATOM     24  C   UNL     1      16.880  39.880  44.973  0.00  0.00    +0.000 A 
ATOM     25  C   UNL     1      17.180  41.119  45.552  0.00  0.00    +0.000 A 
ATOM     26  C   UNL     1      16.543  39.843  43.599  0.00  0.00    +0.000 A 
ATOM     27  C   UNL     1      17.080  42.282  44.775  0.00  0.00    +0.000 A 
ATOM     28  C   UNL     1      16.452  41.001  42.825  0.00  0.00    +0.000 A 
ATOM     29  C   UNL     1      16.776  42.216  43.416  0.00  0.00    +0.000 A 
BRANCH  24  31
ATOM     30  F   UNL     1      16.710  38.637  47.052  0.00  0.00    +0.000 F 
ATOM     31  C   UNL     1      16.910  38.570  45.709  0.00  0.00    +0.000 C 
ATOM     32  F   UNL     1      18.095  37.912  45.542  0.00  0.00    +0.000 F 
ATOM     33  F   UNL     1      15.957  37.708  45.243  0.00  0.00    +0.000 F 
ENDBRANCH  24  31
BRANCH  28  34
ATOM     34  N   UNL     1      16.265  40.920  41.444  0.00  0.00    +0.000 N 
ATOM     35  H   UNL     1      16.947  41.285  40.834  0.00  0.00    +0.000 HD
ATOM     36  H   UNL     1      15.454  40.499  41.081  0.00  0.00    +0.000 HD
ENDBRANCH  28  34
ENDBRANCH  23  25
ENDBRANCH   1  23
TORSDOF 10
ENDMDL
MODEL 2
REMARK VINA RESULT:      -7.7      1.972      2.539
REMARK  Name = 323275
REMARK  10 active torsions:
REMARK  status: ('A' for Active; 'I' for Inactive)
REMARK    1  A    between atoms: C_2  and  C_5
REMARK    2  A    between atoms: C_6  and  O_8
REMARK    3  A    between atoms: O_8  and  C_11
REMARK    4  A    between atoms: C_10  and  N_13
REMARK    5  A    between atoms: C_18  and  C_19
REMARK    6  A    between atoms: CA_20  and  N_21
REMARK    7  A    between atoms: CA_20  and  C_22
REMARK    8  A    between atoms: C_23  and  C_27
REMARK    9  A    between atoms: C_27  and  C_28
REMARK   10  A    between atoms: C_28  and  C_29
REMARK                            x       y       z     vdW  Elec       q    Type
REMARK                         _______ _______ _______ _____ _____    ______ ____
ROOT
ATOM      1  C   UNL     1      18.618  42.323  46.504  0.00  0.00    +0.000 A 
ATOM      2  C   UNL     1      19.848  42.216  45.850  0.00  0.00    +0.000 A 
ATOM      3  C   UNL     1      18.569  42.771  47.825  0.00  0.00    +0.000 A 
ATOM      4  C   UNL     1      21.039  42.425  46.565  0.00  0.00    +0.000 A 
ATOM      5  C   UNL     1      19.747  42.908  48.548  0.00  0.00    +0.000 A 
ATOM      6  C   UNL     1      20.988  42.723  47.932  0.00  0.00    +0.000 A 
ENDROOT
BRANCH   6   7
ATOM      7  C   UNL     1      22.191  42.711  48.772  0.00  0.00    +0.000 C 
ATOM      8  CA  UNL     1      23.412  42.185  48.550  0.00  0.00    +0.000 C 
BRANCH   8   9
ATOM      9  N   UNL     1      23.855  41.517  47.416  0.00  0.00    +0.000 N 
ATOM     10  C   UNL     1      24.011  40.148  47.305  0.00  0.00    +0.000 C 
ATOM     11  O   UNL     1      23.652  39.342  48.155  0.00  0.00    +0.000 OA
ATOM     12  H   UNL     1      24.075  42.063  46.626  0.00  0.00    +0.000 HD
BRANCH  10  13
ATOM     13  C   UNL     1      24.570  39.686  45.969  0.00  0.00    +0.000 C 
BRANCH  13  14
ATOM     14  C   UNL     1      23.635  38.622  45.385  0.00  0.00    +0.000 C 
BRANCH  14  15
ATOM     15  C   UNL     1      22.798  39.086  44.203  0.00  0.00    +0.000 C 
ATOM     16  C   UNL     1      22.873  40.605  44.024  0.00  0.00    +0.000 C 
ATOM     17  C   UNL     1      21.298  38.865  44.362  0.00  0.00    +0.000 C 
ATOM     18  C   UNL     1      21.673  40.946  43.149  0.00  0.00    +0.000 C 
ATOM     19  C   UNL     1      20.694  39.781  43.302  0.00  0.00    +0.000 C 
ENDBRANCH  14  15
ENDBRANCH  13  14
ENDBRANCH  10  13
ENDBRANCH   8   9
BRANCH   8  20
ATOM     20  C   UNL     1      24.374  42.336  49.701  0.00  0.00    +0.000 C 
ATOM     21  O   UNL     1      24.066  42.400  50.879  0.00  0.00    +0.000 OA
ATOM     22  OXT UNL     1      25.657  42.406  49.274  0.00  0.00    +0.000 OA
ENDBRANCH   8  20
ENDBRANCH   6   7
BRANCH   1  23
ATOM     23  O   UNL     1      17.474  41.898  45.851  0.00  0.00    +0.000 OA
BRANCH  23  25
ATOM     24  C   UNL     1      17.170  40.207  44.166  0.00  0.00    +0.000 A 
ATOM     25  C   UNL     1      17.419  40.552  45.500  0.00  0.00    +0.000 A 
ATOM     26  C   UNL     1      17.038  38.836  43.838  0.00  0.00    +0.000 A 
ATOM     27  C   UNL     1      17.589  39.537  46.451  0.00  0.00    +0.000 A 
ATOM     28  C   UNL     1      17.199  37.827  44.790  0.00  0.00    +0.000 A 
ATOM     29  C   UNL     1      17.424  38.195  46.110  0.00  0.00    +0.000 A 
BRANCH  24  31
ATOM     30  F   UNL     1      16.468  42.398  43.390  0.00  0.00    +0.000 F 
ATOM     31  C   UNL     1      17.010  41.199  43.048  0.00  0.00    +0.000 C 
ATOM     32  F   UNL     1      16.234  40.714  42.036  0.00  0.00    +0.000 F 
ATOM     33  F   UNL     1      18.209  41.498  42.465  0.00  0.00    +0.000 F 
ENDBRANCH  24  31
BRANCH  28  34
ATOM     34  N   UNL     1      16.916  36.498  44.470  0.00  0.00    +0.000 N 
ATOM     35  H   UNL     1      16.067  36.269  44.027  0.00  0.00    +0.000 HD
ATOM     36  H   UNL     1      17.564  35.791  44.686  0.00  0.00    +0.000 HD
ENDBRANCH  28  34
ENDBRANCH  23  25
ENDBRANCH   1  23
TORSDOF 10
ENDMDL
MODEL 3
REMARK VINA RESULT:      -7.5      2.812      7.833
REMARK  Name = 323275
REMARK  10 active torsions:
REMARK  status: ('A' for Active; 'I' for Inactive)
REMARK    1  A    between atoms: C_2  and  C_5
REMARK    2  A    between atoms: C_6  and  O_8
REMARK    3  A    between atoms: O_8  and  C_11
REMARK    4  A    between atoms: C_10  and  N_13
REMARK    5  A    between atoms: C_18  and  C_19
REMARK    6  A    between atoms: CA_20  and  N_21
REMARK    7  A    between atoms: CA_20  and  C_22
REMARK    8  A    between atoms: C_23  and  C_27
REMARK    9  A    between atoms: C_27  and  C_28
REMARK   10  A    between atoms: C_28  and  C_29
REMARK                            x       y       z     vdW  Elec       q    Type
REMARK                         _______ _______ _______ _____ _____    ______ ____
ROOT
ATOM      1  C   UNL     1      23.323  40.335  45.034  0.00  0.00    +0.000 A 
ATOM      2  C   UNL     1      22.788  39.330  44.224  0.00  0.00    +0.000 A 
ATOM      3  C   UNL     1      22.535  41.429  45.396  0.00  0.00    +0.000 A 
ATOM      4  C   UNL     1      21.510  39.491  43.663  0.00  0.00    +0.000 A 
ATOM      5  C   UNL     1      21.302  41.619  44.786  0.00  0.00    +0.000 A 
ATOM      6  C   UNL     1      20.785  40.663  43.906  0.00  0.00    +0.000 A 
ENDROOT
BRANCH   6   7
ATOM      7  C   UNL     1      19.564  40.987  43.159  0.00  0.00    +0.000 C 
ATOM      8  CA  UNL     1      18.269  40.764  43.455  0.00  0.00    +0.000 C 
BRANCH   8   9
ATOM      9  N   UNL     1      17.749  40.167  44.596  0.00  0.00    +0.000 N 
ATOM     10  C   UNL     1      17.670  38.805  44.820  0.00  0.00    +0.000 C 
ATOM     11  O   UNL     1      18.169  37.956  44.091  0.00  0.00    +0.000 OA
ATOM     12  H   UNL     1      17.410  40.762  45.304  0.00  0.00    +0.000 HD
BRANCH  10  13
ATOM     13  C   UNL     1      17.000  38.422  46.129  0.00  0.00    +0.000 C 
BRANCH  13  14
ATOM     14  C   UNL     1      16.133  39.595  46.602  0.00  0.00    +0.000 C 
BRANCH  14  15
ATOM     15  C   UNL     1      16.898  40.723  47.275  0.00  0.00    +0.000 C 
ATOM     16  C   UNL     1      16.717  42.048  46.529  0.00  0.00    +0.000 C 
ATOM     17  C   UNL     1      18.414  40.561  47.260  0.00  0.00    +0.000 C 
ATOM     18  C   UNL     1      17.863  42.924  47.023  0.00  0.00    +0.000 C 
ATOM     19  C   UNL     1      18.921  41.965  47.572  0.00  0.00    +0.000 C 
ENDBRANCH  14  15
ENDBRANCH  13  14
ENDBRANCH  10  13
ENDBRANCH   8   9
BRANCH   8  20
ATOM     20  C   UNL     1      17.301  41.203  42.386  0.00  0.00    +0.000 C 
ATOM     21  O   UNL     1      16.220  40.690  42.154  0.00  0.00    +0.000 OA
ATOM     22  OXT UNL     1      17.780  42.254  41.679  0.00  0.00    +0.000 OA
ENDBRANCH   8  20
ENDBRANCH   6   7
BRANCH   1  23
ATOM     23  O   UNL     1      24.658  40.267  45.391  0.00  0.00    +0.000 OA
BRANCH  23  25
ATOM     24  C   UNL     1      24.522  40.505  47.782  0.00  0.00    +0.000 A 
ATOM     25  C   UNL     1      25.029  40.941  46.551  0.00  0.00    +0.000 A 
ATOM     26  C   UNL     1      24.843  41.248  48.944  0.00  0.00    +0.000 A 
ATOM     27  C   UNL     1      25.879  42.054  46.515  0.00  0.00    +0.000 A 
ATOM     28  C   UNL     1      25.684  42.361  48.903  0.00  0.00    +0.000 A 
ATOM     29  C   UNL     1      26.156  42.787  47.668  0.00  0.00    +0.000 A 
BRANCH  24  31
ATOM     30  F   UNL     1      23.873  38.262  47.119  0.00  0.00    +0.000 F 
ATOM     31  C   UNL     1      23.635  39.304  47.957  0.00  0.00    +0.000 C 
ATOM     32  F   UNL     1      22.314  39.612  47.804  0.00  0.00    +0.000 F 
ATOM     33  F   UNL     1      23.735  38.785  49.218  0.00  0.00    +0.000 F 
ENDBRANCH  24  31
BRANCH  28  34
ATOM     34  N   UNL     1      25.861  43.159  50.035  0.00  0.00    +0.000 N 
ATOM     35  H   UNL     1      26.209  42.762  50.867  0.00  0.00    +0.000 HD
ATOM     36  H   UNL     1      25.639  44.117  50.002  0.00  0.00    +0.000 HD
ENDBRANCH  28  34
ENDBRANCH  23  25
ENDBRANCH   1  23
TORSDOF 10
ENDMDL
MODEL 4
REMARK VINA RESULT:      -7.4      1.816      2.463
REMARK  Name = 323275
REMARK  10 active torsions:
REMARK  status: ('A' for Active; 'I' for Inactive)
REMARK    1  A    between atoms: C_2  and  C_5
REMARK    2  A    between atoms: C_6  and  O_8
REMARK    3  A    between atoms: O_8  and  C_11
REMARK    4  A    between atoms: C_10  and  N_13
REMARK    5  A    between atoms: C_18  and  C_19
REMARK    6  A    between atoms: CA_20  and  N_21
REMARK    7  A    between atoms: CA_20  and  C_22
REMARK    8  A    between atoms: C_23  and  C_27
REMARK    9  A    between atoms: C_27  and  C_28
REMARK   10  A    between atoms: C_28  and  C_29
REMARK                            x       y       z     vdW  Elec       q    Type
REMARK                         _______ _______ _______ _____ _____    ______ ____
ROOT
ATOM      1  C   UNL     1      18.848  41.507  47.158  0.00  0.00    +0.000 A 
ATOM      2  C   UNL     1      20.016  40.978  46.601  0.00  0.00    +0.000 A 
ATOM      3  C   UNL     1      18.931  42.510  48.125  0.00  0.00    +0.000 A 
ATOM      4  C   UNL     1      21.267  41.355  47.116  0.00  0.00    +0.000 A 
ATOM      5  C   UNL     1      20.164  42.828  48.680  0.00  0.00    +0.000 A 
ATOM      6  C   UNL     1      21.339  42.246  48.193  0.00  0.00    +0.000 A 
ENDROOT
BRANCH   6   7
ATOM      7  C   UNL     1      22.591  42.483  48.920  0.00  0.00    +0.000 C 
ATOM      8  CA  UNL     1      23.857  42.128  48.626  0.00  0.00    +0.000 C 
BRANCH   8   9
ATOM      9  N   UNL     1      24.309  41.442  47.507  0.00  0.00    +0.000 N 
ATOM     10  C   UNL     1      24.302  40.068  47.356  0.00  0.00    +0.000 C 
ATOM     11  O   UNL     1      23.774  39.290  48.143  0.00  0.00    +0.000 OA
ATOM     12  H   UNL     1      24.661  41.977  46.759  0.00  0.00    +0.000 HD
BRANCH  10  13
ATOM     13  C   UNL     1      24.911  39.576  46.053  0.00  0.00    +0.000 C 
BRANCH  13  14
ATOM     14  C   UNL     1      23.958  38.557  45.418  0.00  0.00    +0.000 C 
BRANCH  14  15
ATOM     15  C   UNL     1      23.134  39.090  44.256  0.00  0.00    +0.000 C 
ATOM     16  C   UNL     1      23.089  40.621  44.255  0.00  0.00    +0.000 C 
ATOM     17  C   UNL     1      21.653  38.734  44.312  0.00  0.00    +0.000 C 
ATOM     18  C   UNL     1      21.900  40.967  43.366  0.00  0.00    +0.000 C 
ATOM     19  C   UNL     1      21.018  39.719  43.335  0.00  0.00    +0.000 C 
ENDBRANCH  14  15
ENDBRANCH  13  14
ENDBRANCH  10  13
ENDBRANCH   8   9
BRANCH   8  20
ATOM     20  C   UNL     1      24.871  42.516  49.672  0.00  0.00    +0.000 C 
ATOM     21  O   UNL     1      26.078  42.566  49.505  0.00  0.00    +0.000 OA
ATOM     22  OXT UNL     1      24.282  42.802  50.858  0.00  0.00    +0.000 OA
ENDBRANCH   8  20
ENDBRANCH   6   7
BRANCH   1  23
ATOM     23  O   UNL     1      17.628  40.962  46.797  0.00  0.00    +0.000 OA
BRANCH  23  25
ATOM     24  C   UNL     1      16.961  42.126  44.799  0.00  0.00    +0.000 A 
ATOM     25  C   UNL     1      17.334  40.936  45.437  0.00  0.00    +0.000 A 
ATOM     26  C   UNL     1      16.587  42.070  43.435  0.00  0.00    +0.000 A 
ATOM     27  C   UNL     1      17.382  39.747  44.697  0.00  0.00    +0.000 A 
ATOM     28  C   UNL     1      16.629  40.882  42.702  0.00  0.00    +0.000 A 
ATOM     29  C   UNL     1      16.979  39.712  43.363  0.00  0.00    +0.000 A 
BRANCH  24  31
ATOM     30  F   UNL     1      16.320  43.500  46.695  0.00  0.00    +0.000 F 
ATOM     31  C   UNL     1      16.910  43.469  45.471  0.00  0.00    +0.000 C 
ATOM     32  F   UNL     1      16.253  44.398  44.717  0.00  0.00    +0.000 F 
ATOM     33  F   UNL     1      18.161  43.986  45.660  0.00  0.00    +0.000 F 
ENDBRANCH  24  31
BRANCH  28  34
ATOM     34  N   UNL     1      16.113  40.829  41.406  0.00  0.00    +0.000 N 
ATOM     35  H   UNL     1      16.721  40.882  40.633  0.00  0.00    +0.000 HD
ATOM     36  H   UNL     1      15.143  40.739  41.265  0.00  0.00    +0.000 HD
ENDBRANCH  28  34
ENDBRANCH  23  25
ENDBRANCH   1  23
TORSDOF 10
ENDMDL
MODEL 5
REMARK VINA RESULT:      -7.3      3.554      8.165
REMARK  Name = 323275
REMARK  10 active torsions:
REMARK  status: ('A' for Active; 'I' for Inactive)
REMARK    1  A    between atoms: C_2  and  C_5
REMARK    2  A    between atoms: C_6  and  O_8
REMARK    3  A    between atoms: O_8  and  C_11
REMARK    4  A    between atoms: C_10  and  N_13
REMARK    5  A    between atoms: C_18  and  C_19
REMARK    6  A    between atoms: CA_20  and  N_21
REMARK    7  A    between atoms: CA_20  and  C_22
REMARK    8  A    between atoms: C_23  and  C_27
REMARK    9  A    between atoms: C_27  and  C_28
REMARK   10  A    between atoms: C_28  and  C_29
REMARK                            x       y       z     vdW  Elec       q    Type
REMARK                         _______ _______ _______ _____ _____    ______ ____
ROOT
ATOM      1  C   UNL     1      22.118  41.291  45.447  0.00  0.00    +0.000 A 
ATOM      2  C   UNL     1      21.482  40.082  45.152  0.00  0.00    +0.000 A 
ATOM      3  C   UNL     1      21.491  42.500  45.140  0.00  0.00    +0.000 A 
ATOM      4  C   UNL     1      20.281  40.084  44.423  0.00  0.00    +0.000 A 
ATOM      5  C   UNL     1      20.343  42.498  44.359  0.00  0.00    +0.000 A 
ATOM      6  C   UNL     1      19.736  41.296  43.982  0.00  0.00    +0.000 A 
ENDROOT
BRANCH   6   7
ATOM      7  C   UNL     1      18.629  41.342  43.020  0.00  0.00    +0.000 C 
ATOM      8  CA  UNL     1      17.345  40.953  43.141  0.00  0.00    +0.000 C 
BRANCH   8   9
ATOM      9  N   UNL     1      16.723  40.412  44.258  0.00  0.00    +0.000 N 
ATOM     10  C   UNL     1      16.836  39.100  44.678  0.00  0.00    +0.000 C 
ATOM     11  O   UNL     1      17.606  38.282  44.187  0.00  0.00    +0.000 OA
ATOM     12  H   UNL     1      16.156  41.011  44.796  0.00  0.00    +0.000 HD
BRANCH  10  13
ATOM     13  C   UNL     1      16.000  38.757  45.900  0.00  0.00    +0.000 C 
BRANCH  13  14
ATOM     14  C   UNL     1      16.523  39.559  47.096  0.00  0.00    +0.000 C 
BRANCH  14  15
ATOM     15  C   UNL     1      17.329  40.797  46.732  0.00  0.00    +0.000 C 
ATOM     16  C   UNL     1      18.520  40.990  47.675  0.00  0.00    +0.000 C 
ATOM     17  C   UNL     1      16.580  42.114  46.901  0.00  0.00    +0.000 C 
ATOM     18  C   UNL     1      18.922  42.448  47.487  0.00  0.00    +0.000 C 
ATOM     19  C   UNL     1      17.696  43.154  46.908  0.00  0.00    +0.000 C 
ENDBRANCH  14  15
ENDBRANCH  13  14
ENDBRANCH  10  13
ENDBRANCH   8   9
BRANCH   8  20
ATOM     20  C   UNL     1      16.524  41.117  41.887  0.00  0.00    +0.000 C 
ATOM     21  O   UNL     1      15.398  40.681  41.714  0.00  0.00    +0.000 OA
ATOM     22  OXT UNL     1      17.195  41.811  40.937  0.00  0.00    +0.000 OA
ENDBRANCH   8  20
ENDBRANCH   6   7
BRANCH   1  23
ATOM     23  O   UNL     1      23.402  41.263  45.963  0.00  0.00    +0.000 OA
BRANCH  23  25
ATOM     24  C   UNL     1      24.839  41.726  47.837  0.00  0.00    +0.000 A 
ATOM     25  C   UNL     1      23.559  41.718  47.269  0.00  0.00    +0.000 A 
ATOM     26  C   UNL     1      24.973  42.116  49.191  0.00  0.00    +0.000 A 
ATOM     27  C   UNL     1      22.467  42.149  48.034  0.00  0.00    +0.000 A 
ATOM     28  C   UNL     1      23.881  42.537  49.953  0.00  0.00    +0.000 A 
ATOM     29  C   UNL     1      22.619  42.498  49.375  0.00  0.00    +0.000 A 
BRANCH  24  31
ATOM     30  F   UNL     1      25.997  40.225  46.320  0.00  0.00    +0.000 F 
ATOM     31  C   UNL     1      26.093  41.327  47.110  0.00  0.00    +0.000 C 
ATOM     32  F   UNL     1      27.129  41.085  47.964  0.00  0.00    +0.000 F 
ATOM     33  F   UNL     1      26.536  42.325  46.287  0.00  0.00    +0.000 F 
ENDBRANCH  24  31
BRANCH  28  34
ATOM     34  N   UNL     1      24.019  42.770  51.322  0.00  0.00    +0.000 N 
ATOM     35  H   UNL     1      23.399  42.344  51.959  0.00  0.00    +0.000 HD
ATOM     36  H   UNL     1      24.736  43.358  51.653  0.00  0.00    +0.000 HD
ENDBRANCH  28  34
ENDBRANCH  23  25
ENDBRANCH   1  23
TORSDOF 10
ENDMDL
MODEL 6
REMARK VINA RESULT:      -7.3      2.094      2.522
REMARK  Name = 323275
REMARK  10 active torsions:
REMARK  status: ('A' for Active; 'I' for Inactive)
REMARK    1  A    between atoms: C_2  and  C_5
REMARK    2  A    between atoms: C_6  and  O_8
REMARK    3  A    between atoms: O_8  and  C_11
REMARK    4  A    between atoms: C_10  and  N_13
REMARK    5  A    between atoms: C_18  and  C_19
REMARK    6  A    between atoms: CA_20  and  N_21
REMARK    7  A    between atoms: CA_20  and  C_22
REMARK    8  A    between atoms: C_23  and  C_27
REMARK    9  A    between atoms: C_27  and  C_28
REMARK   10  A    between atoms: C_28  and  C_29
REMARK                            x       y       z     vdW  Elec       q    Type
REMARK                         _______ _______ _______ _____ _____    ______ ____
ROOT
ATOM      1  C   UNL     1      19.387  41.273  45.601  0.00  0.00    +0.000 A 
ATOM      2  C   UNL     1      19.962  40.269  46.385  0.00  0.00    +0.000 A 
ATOM      3  C   UNL     1      19.936  42.557  45.604  0.00  0.00    +0.000 A 
ATOM      4  C   UNL     1      21.000  40.587  47.276  0.00  0.00    +0.000 A 
ATOM      5  C   UNL     1      20.912  42.884  46.535  0.00  0.00    +0.000 A 
ATOM      6  C   UNL     1      21.443  41.910  47.386  0.00  0.00    +0.000 A 
ENDROOT
BRANCH   6   7
ATOM      7  C   UNL     1      22.345  42.337  48.463  0.00  0.00    +0.000 C 
ATOM      8  CA  UNL     1      23.595  41.941  48.769  0.00  0.00    +0.000 C 
BRANCH   8   9
ATOM      9  N   UNL     1      24.379  41.010  48.100  0.00  0.00    +0.000 N 
ATOM     10  C   UNL     1      25.289  41.302  47.101  0.00  0.00    +0.000 C 
ATOM     11  O   UNL     1      25.611  42.438  46.772  0.00  0.00    +0.000 OA
ATOM     12  H   UNL     1      24.279  40.065  48.359  0.00  0.00    +0.000 HD
BRANCH  10  13
ATOM     13  C   UNL     1      25.970  40.085  46.497  0.00  0.00    +0.000 C 
BRANCH  13  14
ATOM     14  C   UNL     1      24.902  39.038  46.162  0.00  0.00    +0.000 C 
BRANCH  14  15
ATOM     15  C   UNL     1      23.645  39.593  45.509  0.00  0.00    +0.000 C 
ATOM     16  C   UNL     1      22.885  38.508  44.741  0.00  0.00    +0.000 C 
ATOM     17  C   UNL     1      23.900  40.628  44.419  0.00  0.00    +0.000 C 
ATOM     18  C   UNL     1      21.964  39.280  43.802  0.00  0.00    +0.000 C 
ATOM     19  C   UNL     1      22.576  40.675  43.664  0.00  0.00    +0.000 C 
ENDBRANCH  14  15
ENDBRANCH  13  14
ENDBRANCH  10  13
ENDBRANCH   8   9
BRANCH   8  20
ATOM     20  C   UNL     1      24.169  42.589  50.003  0.00  0.00    +0.000 C 
ATOM     21  O   UNL     1      23.866  42.316  51.153  0.00  0.00    +0.000 OA
ATOM     22  OXT UNL     1      25.077  43.544  49.691  0.00  0.00    +0.000 OA
ENDBRANCH   8  20
ENDBRANCH   6   7
BRANCH   1  23
ATOM     23  O   UNL     1      18.226  40.994  44.901  0.00  0.00    +0.000 OA
BRANCH  23  25
ATOM     24  C   UNL     1      16.969  39.198  45.893  0.00  0.00    +0.000 A 
ATOM     25  C   UNL     1      17.815  39.665  44.880  0.00  0.00    +0.000 A 
ATOM     26  C   UNL     1      16.623  37.825  45.904  0.00  0.00    +0.000 A 
ATOM     27  C   UNL     1      18.243  38.779  43.882  0.00  0.00    +0.000 A 
ATOM     28  C   UNL     1      17.058  36.943  44.913  0.00  0.00    +0.000 A 
ATOM     29  C   UNL     1      17.915  37.425  43.932  0.00  0.00    +0.000 A 
BRANCH  24  31
ATOM     30  F   UNL     1      16.114  41.339  46.656  0.00  0.00    +0.000 F 
ATOM     31  C   UNL     1      16.410  40.056  46.994  0.00  0.00    +0.000 C 
ATOM     32  F   UNL     1      17.255  40.138  48.063  0.00  0.00    +0.000 F 
ATOM     33  F   UNL     1      15.250  39.537  47.497  0.00  0.00    +0.000 F 
ENDBRANCH  24  31
BRANCH  28  34
ATOM     34  N   UNL     1      16.826  35.572  45.032  0.00  0.00    +0.000 N 
ATOM     35  H   UNL     1      15.944  35.200  44.801  0.00  0.00    +0.000 HD
ATOM     36  H   UNL     1      17.544  34.977  45.345  0.00  0.00    +0.000 HD
ENDBRANCH  28  34
ENDBRANCH  23  25
ENDBRANCH   1  23
TORSDOF 10
ENDMDL
MODEL 7
REMARK VINA RESULT:      -7.1      2.875      7.856
REMARK  Name = 323275
REMARK  10 active torsions:
REMARK  status: ('A' for Active; 'I' for Inactive)
REMARK    1  A    between atoms: C_2  and  C_5
REMARK    2  A    between atoms: C_6  and  O_8
REMARK    3  A    between atoms: O_8  and  C_11
REMARK    4  A    between atoms: C_10  and  N_13
REMARK    5  A    between atoms: C_18  and  C_19
REMARK    6  A    between atoms: CA_20  and  N_21
REMARK    7  A    between atoms: CA_20  and  C_22
REMARK    8  A    between atoms: C_23  and  C_27
REMARK    9  A    between atoms: C_27  and  C_28
REMARK   10  A    between atoms: C_28  and  C_29
REMARK                            x       y       z     vdW  Elec       q    Type
REMARK                         _______ _______ _______ _____ _____    ______ ____
ROOT
ATOM      1  C   UNL     1      23.348  40.356  45.038  0.00  0.00    +0.000 A 
ATOM      2  C   UNL     1      22.798  39.356  44.232  0.00  0.00    +0.000 A 
ATOM      3  C   UNL     1      22.601  41.496  45.341  0.00  0.00    +0.000 A 
ATOM      4  C   UNL     1      21.553  39.563  43.616  0.00  0.00    +0.000 A 
ATOM      5  C   UNL     1      21.405  41.729  44.676  0.00  0.00    +0.000 A 
ATOM      6  C   UNL     1      20.877  40.776  43.800  0.00  0.00    +0.000 A 
ENDROOT
BRANCH   6   7
ATOM      7  C   UNL     1      19.704  41.138  42.996  0.00  0.00    +0.000 C 
ATOM      8  CA  UNL     1      18.417  41.318  43.351  0.00  0.00    +0.000 C 
BRANCH   8   9
ATOM      9  N   UNL     1      17.866  41.222  44.623  0.00  0.00    +0.000 N 
ATOM     10  C   UNL     1      17.257  42.257  45.309  0.00  0.00    +0.000 C 
ATOM     11  O   UNL     1      17.013  43.356  44.825  0.00  0.00    +0.000 OA
ATOM     12  H   UNL     1      17.912  40.347  45.072  0.00  0.00    +0.000 HD
BRANCH  10  13
ATOM     13  C   UNL     1      16.794  41.894  46.710  0.00  0.00    +0.000 C 
BRANCH  13  14
ATOM     14  C   UNL     1      17.752  40.848  47.291  0.00  0.00    +0.000 C 
BRANCH  14  15
ATOM     15  C   UNL     1      17.339  39.403  47.057  0.00  0.00    +0.000 C 
ATOM     16  C   UNL     1      18.114  38.779  45.893  0.00  0.00    +0.000 C 
ATOM     17  C   UNL     1      15.895  39.220  46.605  0.00  0.00    +0.000 C 
ATOM     18  C   UNL     1      17.292  37.556  45.500  0.00  0.00    +0.000 C 
ATOM     19  C   UNL     1      15.882  37.806  46.035  0.00  0.00    +0.000 C 
ENDBRANCH  14  15
ENDBRANCH  13  14
ENDBRANCH  10  13
ENDBRANCH   8   9
BRANCH   8  20
ATOM     20  C   UNL     1      17.492  41.633  42.204  0.00  0.00    +0.000 C 
ATOM     21  O   UNL     1      17.706  42.450  41.324  0.00  0.00    +0.000 OA
ATOM     22  OXT UNL     1      16.356  40.898  42.261  0.00  0.00    +0.000 OA
ENDBRANCH   8  20
ENDBRANCH   6   7
BRANCH   1  23
ATOM     23  O   UNL     1      24.664  40.233  45.452  0.00  0.00    +0.000 OA
BRANCH  23  25
ATOM     24  C   UNL     1      24.490  40.512  47.836  0.00  0.00    +0.000 A 
ATOM     25  C   UNL     1      25.021  40.922  46.607  0.00  0.00    +0.000 A 
ATOM     26  C   UNL     1      24.799  41.270  48.991  0.00  0.00    +0.000 A 
ATOM     27  C   UNL     1      25.883  42.027  46.567  0.00  0.00    +0.000 A 
ATOM     28  C   UNL     1      25.651  42.375  48.946  0.00  0.00    +0.000 A 
ATOM     29  C   UNL     1      26.147  42.776  47.713  0.00  0.00    +0.000 A 
BRANCH  24  31
ATOM     30  F   UNL     1      23.814  38.274  47.180  0.00  0.00    +0.000 F 
ATOM     31  C   UNL     1      23.589  39.322  48.016  0.00  0.00    +0.000 C 
ATOM     32  F   UNL     1      22.272  39.645  47.863  0.00  0.00    +0.000 F 
ATOM     33  F   UNL     1      23.684  38.805  49.278  0.00  0.00    +0.000 F 
ENDBRANCH  24  31
BRANCH  28  34
ATOM     34  N   UNL     1      25.817  43.189  50.068  0.00  0.00    +0.000 N 
ATOM     35  H   UNL     1      26.037  42.787  50.940  0.00  0.00    +0.000 HD
ATOM     36  H   UNL     1      25.714  44.165  49.988  0.00  0.00    +0.000 HD
ENDBRANCH  28  34
ENDBRANCH  23  25
ENDBRANCH   1  23
TORSDOF 10
ENDMDL
MODEL 8
REMARK VINA RESULT:      -7.1      2.369      4.403
REMARK  Name = 323275
REMARK  10 active torsions:
REMARK  status: ('A' for Active; 'I' for Inactive)
REMARK    1  A    between atoms: C_2  and  C_5
REMARK    2  A    between atoms: C_6  and  O_8
REMARK    3  A    between atoms: O_8  and  C_11
REMARK    4  A    between atoms: C_10  and  N_13
REMARK    5  A    between atoms: C_18  and  C_19
REMARK    6  A    between atoms: CA_20  and  N_21
REMARK    7  A    between atoms: CA_20  and  C_22
REMARK    8  A    between atoms: C_23  and  C_27
REMARK    9  A    between atoms: C_27  and  C_28
REMARK   10  A    between atoms: C_28  and  C_29
REMARK                            x       y       z     vdW  Elec       q    Type
REMARK                         _______ _______ _______ _____ _____    ______ ____
ROOT
ATOM      1  C   UNL     1      20.954  39.756  43.305  0.00  0.00    +0.000 A 
ATOM      2  C   UNL     1      21.767  38.697  43.720  0.00  0.00    +0.000 A 
ATOM      3  C   UNL     1      21.343  41.072  43.561  0.00  0.00    +0.000 A 
ATOM      4  C   UNL     1      22.896  38.953  44.514  0.00  0.00    +0.000 A 
ATOM      5  C   UNL     1      22.418  41.318  44.404  0.00  0.00    +0.000 A 
ATOM      6  C   UNL     1      23.195  40.266  44.898  0.00  0.00    +0.000 A 
ENDROOT
BRANCH   6   7
ATOM      7  C   UNL     1      24.210  40.562  45.916  0.00  0.00    +0.000 C 
ATOM      8  CA  UNL     1      24.145  41.324  47.024  0.00  0.00    +0.000 C 
BRANCH   8   9
ATOM      9  N   UNL     1      23.050  42.028  47.508  0.00  0.00    +0.000 N 
ATOM     10  C   UNL     1      21.785  41.503  47.700  0.00  0.00    +0.000 C 
ATOM     11  O   UNL     1      21.507  40.315  47.589  0.00  0.00    +0.000 OA
ATOM     12  H   UNL     1      23.185  42.977  47.735  0.00  0.00    +0.000 HD
BRANCH  10  13
ATOM     13  C   UNL     1      20.754  42.510  48.185  0.00  0.00    +0.000 C 
BRANCH  13  14
ATOM     14  C   UNL     1      20.305  43.367  46.996  0.00  0.00    +0.000 C 
BRANCH  14  15
ATOM     15  C   UNL     1      18.872  43.133  46.545  0.00  0.00    +0.000 C 
ATOM     16  C   UNL     1      17.918  44.168  47.149  0.00  0.00    +0.000 C 
ATOM     17  C   UNL     1      18.259  41.824  47.030  0.00  0.00    +0.000 C 
ATOM     18  C   UNL     1      16.534  43.547  46.996  0.00  0.00    +0.000 C 
ATOM     19  C   UNL     1      16.762  42.044  46.834  0.00  0.00    +0.000 C 
ENDBRANCH  14  15
ENDBRANCH  13  14
ENDBRANCH  10  13
ENDBRANCH   8   9
BRANCH   8  20
ATOM     20  C   UNL     1      25.440  41.422  47.790  0.00  0.00    +0.000 C 
ATOM     21  O   UNL     1      26.500  40.921  47.457  0.00  0.00    +0.000 OA
ATOM     22  OXT UNL     1      25.294  42.139  48.930  0.00  0.00    +0.000 OA
ENDBRANCH   8  20
ENDBRANCH   6   7
BRANCH   1  23
ATOM     23  O   UNL     1      19.732  39.473  42.720  0.00  0.00    +0.000 OA
BRANCH  23  25
ATOM     24  C   UNL     1      17.667  40.114  43.776  0.00  0.00    +0.000 A 
ATOM     25  C   UNL     1      18.683  39.170  43.583  0.00  0.00    +0.000 A 
ATOM     26  C   UNL     1      16.649  39.826  44.717  0.00  0.00    +0.000 A 
ATOM     27  C   UNL     1      18.629  37.953  44.275  0.00  0.00    +0.000 A 
ATOM     28  C   UNL     1      16.603  38.616  45.412  0.00  0.00    +0.000 A 
ATOM     29  C   UNL     1      17.634  37.705  45.220  0.00  0.00    +0.000 A 
BRANCH  24  31
ATOM     30  F   UNL     1      17.495  41.376  41.709  0.00  0.00    +0.000 F 
ATOM     31  C   UNL     1      17.590  41.436  43.064  0.00  0.00    +0.000 C 
ATOM     32  F   UNL     1      18.671  42.227  43.327  0.00  0.00    +0.000 F 
ATOM     33  F   UNL     1      16.508  42.165  43.471  0.00  0.00    +0.000 F 
ENDBRANCH  24  31
BRANCH  28  34
ATOM     34  N   UNL     1      15.677  38.422  46.438  0.00  0.00    +0.000 N 
ATOM     35  H   UNL     1      14.743  38.711  46.319  0.00  0.00    +0.000 HD
ATOM     36  H   UNL     1      15.957  37.996  47.280  0.00  0.00    +0.000 HD
ENDBRANCH  28  34
ENDBRANCH  23  25
ENDBRANCH   1  23
TORSDOF 10
ENDMDL
MODEL 9
REMARK VINA RESULT:      -7.0      3.213      8.056
REMARK  Name = 323275
REMARK  10 active torsions:
REMARK  status: ('A' for Active; 'I' for Inactive)
REMARK    1  A    between atoms: C_2  and  C_5
REMARK    2  A    between atoms: C_6  and  O_8
REMARK    3  A    between atoms: O_8  and  C_11
REMARK    4  A    between atoms: C_10  and  N_13
REMARK    5  A    between atoms: C_18  and  C_19
REMARK    6  A    between atoms: CA_20  and  N_21
REMARK    7  A    between atoms: CA_20  and  C_22
REMARK    8  A    between atoms: C_23  and  C_27
REMARK    9  A    between atoms: C_27  and  C_28
REMARK   10  A    between atoms: C_28  and  C_29
REMARK                            x       y       z     vdW  Elec       q    Type
REMARK                         _______ _______ _______ _____ _____    ______ ____
ROOT
ATOM      1  C   UNL     1      21.992  40.313  45.920  0.00  0.00    +0.000 A 
ATOM      2  C   UNL     1      21.326  41.540  45.989  0.00  0.00    +0.000 A 
ATOM      3  C   UNL     1      21.896  39.534  44.766  0.00  0.00    +0.000 A 
ATOM      4  C   UNL     1      20.451  41.919  44.957  0.00  0.00    +0.000 A 
ATOM      5  C   UNL     1      20.978  39.876  43.781  0.00  0.00    +0.000 A 
ATOM      6  C   UNL     1      20.240  41.059  43.872  0.00  0.00    +0.000 A 
ENDROOT
BRANCH   6   7
ATOM      7  C   UNL     1      19.166  41.291  42.899  0.00  0.00    +0.000 C 
ATOM      8  CA  UNL     1      17.831  41.356  43.064  0.00  0.00    +0.000 C 
BRANCH   8   9
ATOM      9  N   UNL     1      17.115  41.236  44.248  0.00  0.00    +0.000 N 
ATOM     10  C   UNL     1      17.024  42.206  45.228  0.00  0.00    +0.000 C 
ATOM     11  O   UNL     1      17.461  43.346  45.113  0.00  0.00    +0.000 OA
ATOM     12  H   UNL     1      16.631  40.392  44.401  0.00  0.00    +0.000 HD
BRANCH  10  13
ATOM     13  C   UNL     1      16.223  41.791  46.451  0.00  0.00    +0.000 C 
BRANCH  13  14
ATOM     14  C   UNL     1      17.107  40.913  47.345  0.00  0.00    +0.000 C 
BRANCH  14  15
ATOM     15  C   UNL     1      17.033  39.423  47.050  0.00  0.00    +0.000 C 
ATOM     16  C   UNL     1      18.021  39.018  45.952  0.00  0.00    +0.000 C 
ATOM     17  C   UNL     1      15.706  38.957  46.463  0.00  0.00    +0.000 C 
ATOM     18  C   UNL     1      17.516  37.664  45.465  0.00  0.00    +0.000 C 
ATOM     19  C   UNL     1      16.044  37.592  45.871  0.00  0.00    +0.000 C 
ENDBRANCH  14  15
ENDBRANCH  13  14
ENDBRANCH  10  13
ENDBRANCH   8   9
BRANCH   8  20
ATOM     20  C   UNL     1      17.055  41.558  41.788  0.00  0.00    +0.000 C 
ATOM     21  O   UNL     1      17.438  42.187  40.816  0.00  0.00    +0.000 OA
ATOM     22  OXT UNL     1      15.842  40.956  41.840  0.00  0.00    +0.000 OA
ENDBRANCH   8  20
ENDBRANCH   6   7
BRANCH   1  23
ATOM     23  O   UNL     1      22.668  39.855  47.037  0.00  0.00    +0.000 OA
BRANCH  23  25
ATOM     24  C   UNL     1      24.820  40.915  47.227  0.00  0.00    +0.000 A 
ATOM     25  C   UNL     1      23.503  40.765  47.678  0.00  0.00    +0.000 A 
ATOM     26  C   UNL     1      25.681  41.785  47.938  0.00  0.00    +0.000 A 
ATOM     27  C   UNL     1      23.064  41.518  48.775  0.00  0.00    +0.000 A 
ATOM     28  C   UNL     1      25.243  42.528  49.036  0.00  0.00    +0.000 A 
ATOM     29  C   UNL     1      23.940  42.344  49.478  0.00  0.00    +0.000 A 
BRANCH  24  31
ATOM     30  F   UNL     1      25.037  38.893  45.900  0.00  0.00    +0.000 F 
ATOM     31  C   UNL     1      25.397  40.197  46.039  0.00  0.00    +0.000 C 
ATOM     32  F   UNL     1      26.761  40.208  46.043  0.00  0.00    +0.000 F 
ATOM     33  F   UNL     1      25.040  40.798  44.864  0.00  0.00    +0.000 F 
ENDBRANCH  24  31
BRANCH  28  34
ATOM     34  N   UNL     1      26.150  43.259  49.805  0.00  0.00    +0.000 N 
ATOM     35  H   UNL     1      26.034  44.231  49.910  0.00  0.00    +0.000 HD
ATOM     36  H   UNL     1      26.904  42.803  50.243  0.00  0.00    +0.000 HD
ENDBRANCH  28  34
ENDBRANCH  23  25
ENDBRANCH   1  23
TORSDOF 10
ENDMDL
