MODEL 1
REMARK VINA RESULT:      -8.1      0.000      0.000
REMARK  Name = 320687
REMARK  6 active torsions:
REMARK  status: ('A' for Active; 'I' for Inactive)
REMARK    1  A    between atoms: C_3  and  O_5
REMARK    2  A    between atoms: O_5  and  C_8
REMARK    3  A    between atoms: C_14  and  C_15
REMARK    4  A    between atoms: CA_16  and  N_17
REMARK    5  A    between atoms: CA_16  and  C_18
REMARK    6  A    between atoms: C_19  and  C_23
REMARK                            x       y       z     vdW  Elec       q    Type
REMARK                         _______ _______ _______ _____ _____    ______ ____
ROOT
ATOM      1  C   UNL     1      20.187  42.537  43.464  0.00  0.00    +0.000 C 
ATOM      2  CA  UNL     1      19.052  41.939  43.068  0.00  0.00    +0.000 C 
ENDROOT
BRANCH   1   8
ATOM      3  C   UNL     1      22.413  41.239  46.824  0.00  0.00    +0.000 A 
ATOM      4  C   UNL     1      22.031  42.575  46.742  0.00  0.00    +0.000 A 
ATOM      5  C   UNL     1      22.297  40.410  45.704  0.00  0.00    +0.000 A 
ATOM      6  C   UNL     1      21.382  43.041  45.595  0.00  0.00    +0.000 A 
ATOM      7  C   UNL     1      21.633  40.869  44.568  0.00  0.00    +0.000 A 
ATOM      8  C   UNL     1      21.132  42.174  44.525  0.00  0.00    +0.000 A 
BRANCH   3   9
ATOM      9  O   UNL     1      22.868  40.777  48.043  0.00  0.00    +0.000 OA
BRANCH   9  12
ATOM     10 BR   UNL     1      25.647  40.555  46.709  0.00  0.00    +0.000 Br
ATOM     11  C   UNL     1      25.137  41.519  48.261  0.00  0.00    +0.000 A 
ATOM     12  C   UNL     1      23.811  41.543  48.710  0.00  0.00    +0.000 A 
ATOM     13  C   UNL     1      26.130  42.220  48.957  0.00  0.00    +0.000 A 
ATOM     14  C   UNL     1      23.482  42.360  49.804  0.00  0.00    +0.000 A 
ATOM     15  C   UNL     1      25.803  42.963  50.092  0.00  0.00    +0.000 A 
ATOM     16  C   UNL     1      24.476  43.044  50.507  0.00  0.00    +0.000 A 
ENDBRANCH   9  12
ENDBRANCH   3   9
ENDBRANCH   1   8
BRANCH   2  17
ATOM     17  N   UNL     1      18.551  40.722  43.486  0.00  0.00    +0.000 N 
ATOM     18  C   UNL     1      17.954  40.500  44.716  0.00  0.00    +0.000 C 
ATOM     19  O   UNL     1      17.799  41.360  45.580  0.00  0.00    +0.000 OA
ATOM     20  H   UNL     1      18.623  39.959  42.867  0.00  0.00    +0.000 HD
BRANCH  18  21
ATOM     21  C   UNL     1      17.617  39.096  45.067  0.00  0.00    +0.000 A 
ATOM     22  C   UNL     1      16.624  38.772  45.996  0.00  0.00    +0.000 A 
ATOM     23  C   UNL     1      18.251  38.062  44.360  0.00  0.00    +0.000 A 
ATOM     24  F   UNL     1      15.981  39.734  46.675  0.00  0.00    +0.000 F 
ATOM     25  C   UNL     1      16.240  37.450  46.208  0.00  0.00    +0.000 A 
ATOM     26  C   UNL     1      17.872  36.735  44.570  0.00  0.00    +0.000 A 
ATOM     27  C   UNL     1      16.865  36.445  45.482  0.00  0.00    +0.000 A 
ATOM     28  F   UNL     1      16.475  35.175  45.651  0.00  0.00    +0.000 F 
ENDBRANCH  18  21
ENDBRANCH   2  17
BRANCH   2  29
ATOM     29  C   UNL     1      18.217  42.713  42.086  0.00  0.00    +0.000 C 
ATOM     30  O   UNL     1      18.407  43.869  41.750  0.00  0.00    +0.000 OA
ATOM     31  OXT UNL     1      17.190  41.964  41.616  0.00  0.00    +0.000 OA
ENDBRANCH   2  29
TORSDOF 6
ENDMDL
MODEL 2
REMARK VINA RESULT:      -7.4      1.399      1.556
REMARK  Name = 320687
REMARK  6 active torsions:
REMARK  status: ('A' for Active; 'I' for Inactive)
REMARK    1  A    between atoms: C_3  and  O_5
REMARK    2  A    between atoms: O_5  and  C_8
REMARK    3  A    between atoms: C_14  and  C_15
REMARK    4  A    between atoms: CA_16  and  N_17
REMARK    5  A    between atoms: CA_16  and  C_18
REMARK    6  A    between atoms: C_19  and  C_23
REMARK                            x       y       z     vdW  Elec       q    Type
REMARK                         _______ _______ _______ _____ _____    ______ ____
ROOT
ATOM      1  C   UNL     1      18.813  43.441  45.228  0.00  0.00    +0.000 C 
ATOM      2  CA  UNL     1      17.840  42.695  44.681  0.00  0.00    +0.000 C 
ENDROOT
BRANCH   1   8
ATOM      3  C   UNL     1      21.971  41.784  47.512  0.00  0.00    +0.000 A 
ATOM      4  C   UNL     1      20.691  41.828  48.059  0.00  0.00    +0.000 A 
ATOM      5  C   UNL     1      22.258  42.508  46.351  0.00  0.00    +0.000 A 
ATOM      6  C   UNL     1      19.659  42.460  47.360  0.00  0.00    +0.000 A 
ATOM      7  C   UNL     1      21.225  43.122  45.643  0.00  0.00    +0.000 A 
ATOM      8  C   UNL     1      19.912  43.062  46.122  0.00  0.00    +0.000 A 
BRANCH   3   9
ATOM      9  O   UNL     1      22.907  40.986  48.137  0.00  0.00    +0.000 OA
BRANCH   9  12
ATOM     10 BR   UNL     1      25.431  40.495  46.423  0.00  0.00    +0.000 Br
ATOM     11  C   UNL     1      25.259  41.445  48.056  0.00  0.00    +0.000 A 
ATOM     12  C   UNL     1      24.018  41.606  48.686  0.00  0.00    +0.000 A 
ATOM     13  C   UNL     1      26.415  41.993  48.625  0.00  0.00    +0.000 A 
ATOM     14  C   UNL     1      23.944  42.408  49.836  0.00  0.00    +0.000 A 
ATOM     15  C   UNL     1      26.338  42.720  49.813  0.00  0.00    +0.000 A 
ATOM     16  C   UNL     1      25.100  42.939  50.411  0.00  0.00    +0.000 A 
ENDBRANCH   9  12
ENDBRANCH   3   9
ENDBRANCH   1   8
BRANCH   2  17
ATOM     17  N   UNL     1      17.710  41.321  44.718  0.00  0.00    +0.000 N 
ATOM     18  C   UNL     1      16.988  40.627  45.676  0.00  0.00    +0.000 C 
ATOM     19  O   UNL     1      16.379  41.153  46.604  0.00  0.00    +0.000 OA
ATOM     20  H   UNL     1      18.160  40.797  44.016  0.00  0.00    +0.000 HD
BRANCH  18  21
ATOM     21  C   UNL     1      17.085  39.145  45.662  0.00  0.00    +0.000 A 
ATOM     22  C   UNL     1      16.399  38.339  46.575  0.00  0.00    +0.000 A 
ATOM     23  C   UNL     1      17.811  38.535  44.628  0.00  0.00    +0.000 A 
ATOM     24  F   UNL     1      15.676  38.887  47.564  0.00  0.00    +0.000 F 
ATOM     25  C   UNL     1      16.405  36.951  46.457  0.00  0.00    +0.000 A 
ATOM     26  C   UNL     1      17.823  37.144  44.505  0.00  0.00    +0.000 A 
ATOM     27  C   UNL     1      17.112  36.369  45.413  0.00  0.00    +0.000 A 
ATOM     28  F   UNL     1      17.090  35.038  45.268  0.00  0.00    +0.000 F 
ENDBRANCH  18  21
ENDBRANCH   2  17
BRANCH   2  29
ATOM     29  C   UNL     1      16.748  43.459  43.984  0.00  0.00    +0.000 C 
ATOM     30  O   UNL     1      16.279  44.521  44.355  0.00  0.00    +0.000 OA
ATOM     31  OXT UNL     1      16.321  42.807  42.876  0.00  0.00    +0.000 OA
ENDBRANCH   2  29
TORSDOF 6
ENDMDL
MODEL 3
REMARK VINA RESULT:      -7.1      3.819      7.984
REMARK  Name = 320687
REMARK  6 active torsions:
REMARK  status: ('A' for Active; 'I' for Inactive)
REMARK    1  A    between atoms: C_3  and  O_5
REMARK    2  A    between atoms: O_5  and  C_8
REMARK    3  A    between atoms: C_14  and  C_15
REMARK    4  A    between atoms: CA_16  and  N_17
REMARK    5  A    between atoms: CA_16  and  C_18
REMARK    6  A    between atoms: C_19  and  C_23
REMARK                            x       y       z     vdW  Elec       q    Type
REMARK                         _______ _______ _______ _____ _____    ______ ____
ROOT
ATOM      1  C   UNL     1      23.064  38.885  44.535  0.00  0.00    +0.000 C 
ATOM      2  CA  UNL     1      23.750  38.851  45.687  0.00  0.00    +0.000 C 
ENDROOT
BRANCH   1   8
ATOM      3  C   UNL     1      19.856  41.531  43.731  0.00  0.00    +0.000 A 
ATOM      4  C   UNL     1      19.815  40.240  43.209  0.00  0.00    +0.000 A 
ATOM      5  C   UNL     1      21.044  42.024  44.279  0.00  0.00    +0.000 A 
ATOM      6  C   UNL     1      20.910  39.388  43.381  0.00  0.00    +0.000 A 
ATOM      7  C   UNL     1      22.128  41.168  44.468  0.00  0.00    +0.000 A 
ATOM      8  C   UNL     1      22.049  39.833  44.060  0.00  0.00    +0.000 A 
BRANCH   3   9
ATOM      9  O   UNL     1      18.689  42.266  43.711  0.00  0.00    +0.000 OA
BRANCH   9  12
ATOM     10 BR   UNL     1      16.749  39.956  44.383  0.00  0.00    +0.000 Br
ATOM     11  C   UNL     1      17.094  41.550  45.352  0.00  0.00    +0.000 A 
ATOM     12  C   UNL     1      18.045  42.483  44.920  0.00  0.00    +0.000 A 
ATOM     13  C   UNL     1      16.369  41.776  46.530  0.00  0.00    +0.000 A 
ATOM     14  C   UNL     1      18.327  43.589  45.738  0.00  0.00    +0.000 A 
ATOM     15  C   UNL     1      16.603  42.922  47.291  0.00  0.00    +0.000 A 
ATOM     16  C   UNL     1      17.591  43.821  46.902  0.00  0.00    +0.000 A 
ENDBRANCH   9  12
ENDBRANCH   3   9
ENDBRANCH   1   8
BRANCH   2  17
ATOM     17  N   UNL     1      23.770  39.805  46.685  0.00  0.00    +0.000 N 
ATOM     18  C   UNL     1      24.756  40.768  46.831  0.00  0.00    +0.000 C 
ATOM     19  O   UNL     1      25.728  40.886  46.089  0.00  0.00    +0.000 OA
ATOM     20  H   UNL     1      23.034  39.801  47.339  0.00  0.00    +0.000 HD
BRANCH  18  21
ATOM     21  C   UNL     1      24.709  41.612  48.053  0.00  0.00    +0.000 A 
ATOM     22  C   UNL     1      23.511  41.933  48.698  0.00  0.00    +0.000 A 
ATOM     23  C   UNL     1      25.922  42.011  48.633  0.00  0.00    +0.000 A 
ATOM     24  F   UNL     1      22.332  41.550  48.184  0.00  0.00    +0.000 F 
ATOM     25  C   UNL     1      23.508  42.615  49.911  0.00  0.00    +0.000 A 
ATOM     26  C   UNL     1      25.926  42.697  49.849  0.00  0.00    +0.000 A 
ATOM     27  C   UNL     1      24.720  42.982  50.480  0.00  0.00    +0.000 A 
ATOM     28  F   UNL     1      24.728  43.602  51.666  0.00  0.00    +0.000 F 
ENDBRANCH  18  21
ENDBRANCH   2  17
BRANCH   2  29
ATOM     29  C   UNL     1      24.557  37.604  45.928  0.00  0.00    +0.000 C 
ATOM     30  O   UNL     1      25.611  37.326  45.383  0.00  0.00    +0.000 OA
ATOM     31  OXT UNL     1      23.953  36.795  46.831  0.00  0.00    +0.000 OA
ENDBRANCH   2  29
TORSDOF 6
ENDMDL
MODEL 4
REMARK VINA RESULT:      -6.6      3.607      8.272
REMARK  Name = 320687
REMARK  6 active torsions:
REMARK  status: ('A' for Active; 'I' for Inactive)
REMARK    1  A    between atoms: C_3  and  O_5
REMARK    2  A    between atoms: O_5  and  C_8
REMARK    3  A    between atoms: C_14  and  C_15
REMARK    4  A    between atoms: CA_16  and  N_17
REMARK    5  A    between atoms: CA_16  and  C_18
REMARK    6  A    between atoms: C_19  and  C_23
REMARK                            x       y       z     vdW  Elec       q    Type
REMARK                         _______ _______ _______ _____ _____    ______ ____
ROOT
ATOM      1  C   UNL     1      23.040  39.079  44.559  0.00  0.00    +0.000 C 
ATOM      2  CA  UNL     1      23.858  39.127  45.622  0.00  0.00    +0.000 C 
ENDROOT
BRANCH   1   8
ATOM      3  C   UNL     1      19.251  40.934  44.182  0.00  0.00    +0.000 A 
ATOM      4  C   UNL     1      19.595  39.913  43.299  0.00  0.00    +0.000 A 
ATOM      5  C   UNL     1      20.230  41.511  44.997  0.00  0.00    +0.000 A 
ATOM      6  C   UNL     1      20.878  39.359  43.346  0.00  0.00    +0.000 A 
ATOM      7  C   UNL     1      21.503  40.945  45.057  0.00  0.00    +0.000 A 
ATOM      8  C   UNL     1      21.819  39.837  44.264  0.00  0.00    +0.000 A 
BRANCH   3   9
ATOM      9  O   UNL     1      17.926  41.313  44.236  0.00  0.00    +0.000 OA
BRANCH   9  12
ATOM     10 BR   UNL     1      17.130  43.095  46.632  0.00  0.00    +0.000 Br
ATOM     11  C   UNL     1      16.680  41.285  46.284  0.00  0.00    +0.000 A 
ATOM     12  C   UNL     1      17.097  40.635  45.116  0.00  0.00    +0.000 A 
ATOM     13  C   UNL     1      15.906  40.604  47.232  0.00  0.00    +0.000 A 
ATOM     14  C   UNL     1      16.643  39.329  44.870  0.00  0.00    +0.000 A 
ATOM     15  C   UNL     1      15.529  39.279  47.012  0.00  0.00    +0.000 A 
ATOM     16  C   UNL     1      15.886  38.646  45.825  0.00  0.00    +0.000 A 
ENDBRANCH   9  12
ENDBRANCH   3   9
ENDBRANCH   1   8
BRANCH   2  17
ATOM     17  N   UNL     1      23.827  40.025  46.670  0.00  0.00    +0.000 N 
ATOM     18  C   UNL     1      24.757  41.032  46.869  0.00  0.00    +0.000 C 
ATOM     19  O   UNL     1      25.720  41.244  46.135  0.00  0.00    +0.000 OA
ATOM     20  H   UNL     1      23.093  39.945  47.322  0.00  0.00    +0.000 HD
BRANCH  18  21
ATOM     21  C   UNL     1      24.666  41.805  48.134  0.00  0.00    +0.000 A 
ATOM     22  C   UNL     1      23.450  42.042  48.782  0.00  0.00    +0.000 A 
ATOM     23  C   UNL     1      25.857  42.219  48.749  0.00  0.00    +0.000 A 
ATOM     24  F   UNL     1      22.292  41.642  48.235  0.00  0.00    +0.000 F 
ATOM     25  C   UNL     1      23.409  42.656  50.032  0.00  0.00    +0.000 A 
ATOM     26  C   UNL     1      25.822  42.836  50.001  0.00  0.00    +0.000 A 
ATOM     27  C   UNL     1      24.600  43.037  50.633  0.00  0.00    +0.000 A 
ATOM     28  F   UNL     1      24.573  43.591  51.852  0.00  0.00    +0.000 F 
ENDBRANCH  18  21
ENDBRANCH   2  17
BRANCH   2  29
ATOM     29  C   UNL     1      24.902  38.046  45.689  0.00  0.00    +0.000 C 
ATOM     30  O   UNL     1      26.054  38.148  45.305  0.00  0.00    +0.000 OA
ATOM     31  OXT UNL     1      24.397  36.908  46.224  0.00  0.00    +0.000 OA
ENDBRANCH   2  29
TORSDOF 6
ENDMDL
MODEL 5
REMARK VINA RESULT:      -6.4      3.384      7.261
REMARK  Name = 320687
REMARK  6 active torsions:
REMARK  status: ('A' for Active; 'I' for Inactive)
REMARK    1  A    between atoms: C_3  and  O_5
REMARK    2  A    between atoms: O_5  and  C_8
REMARK    3  A    between atoms: C_14  and  C_15
REMARK    4  A    between atoms: CA_16  and  N_17
REMARK    5  A    between atoms: CA_16  and  C_18
REMARK    6  A    between atoms: C_19  and  C_23
REMARK                            x       y       z     vdW  Elec       q    Type
REMARK                         _______ _______ _______ _____ _____    ______ ____
ROOT
ATOM      1  C   UNL     1      24.027  40.722  45.917  0.00  0.00    +0.000 C 
ATOM      2  CA  UNL     1      23.802  41.572  46.931  0.00  0.00    +0.000 C 
ENDROOT
BRANCH   1   8
ATOM      3  C   UNL     1      20.912  39.329  43.409  0.00  0.00    +0.000 A 
ATOM      4  C   UNL     1      21.607  38.414  44.196  0.00  0.00    +0.000 A 
ATOM      5  C   UNL     1      21.403  40.628  43.251  0.00  0.00    +0.000 A 
ATOM      6  C   UNL     1      22.701  38.841  44.953  0.00  0.00    +0.000 A 
ATOM      7  C   UNL     1      22.483  41.059  44.021  0.00  0.00    +0.000 A 
ATOM      8  C   UNL     1      23.109  40.179  44.910  0.00  0.00    +0.000 A 
BRANCH   3   9
ATOM      9  O   UNL     1      19.727  38.911  42.837  0.00  0.00    +0.000 OA
BRANCH   9  12
ATOM     10 BR   UNL     1      18.008  41.478  42.914  0.00  0.00    +0.000 Br
ATOM     11  C   UNL     1      17.769  39.848  43.854  0.00  0.00    +0.000 A 
ATOM     12  C   UNL     1      18.629  38.759  43.670  0.00  0.00    +0.000 A 
ATOM     13  C   UNL     1      16.694  39.754  44.747  0.00  0.00    +0.000 A 
ATOM     14  C   UNL     1      18.335  37.548  44.317  0.00  0.00    +0.000 A 
ATOM     15  C   UNL     1      16.461  38.569  45.446  0.00  0.00    +0.000 A 
ATOM     16  C   UNL     1      17.273  37.462  45.220  0.00  0.00    +0.000 A 
ENDBRANCH   9  12
ENDBRANCH   3   9
ENDBRANCH   1   8
BRANCH   2  17
ATOM     17  N   UNL     1      22.643  42.271  47.204  0.00  0.00    +0.000 N 
ATOM     18  C   UNL     1      21.401  41.687  47.396  0.00  0.00    +0.000 C 
ATOM     19  O   UNL     1      21.186  40.479  47.347  0.00  0.00    +0.000 OA
ATOM     20  H   UNL     1      22.701  43.252  47.266  0.00  0.00    +0.000 HD
BRANCH  18  21
ATOM     21  C   UNL     1      20.232  42.596  47.519  0.00  0.00    +0.000 A 
ATOM     22  C   UNL     1      19.640  43.211  46.412  0.00  0.00    +0.000 A 
ATOM     23  C   UNL     1      19.642  42.755  48.782  0.00  0.00    +0.000 A 
ATOM     24  F   UNL     1      20.164  43.064  45.185  0.00  0.00    +0.000 F 
ATOM     25  C   UNL     1      18.469  43.952  46.541  0.00  0.00    +0.000 A 
ATOM     26  C   UNL     1      18.468  43.498  48.919  0.00  0.00    +0.000 A 
ATOM     27  C   UNL     1      17.889  44.079  47.796  0.00  0.00    +0.000 A 
ATOM     28  F   UNL     1      16.740  44.756  47.923  0.00  0.00    +0.000 F 
ENDBRANCH  18  21
ENDBRANCH   2  17
BRANCH   2  29
ATOM     29  C   UNL     1      24.938  41.742  47.902  0.00  0.00    +0.000 C 
ATOM     30  O   UNL     1      26.118  41.571  47.649  0.00  0.00    +0.000 OA
ATOM     31  OXT UNL     1      24.487  42.100  49.128  0.00  0.00    +0.000 OA
ENDBRANCH   2  29
TORSDOF 6
ENDMDL
MODEL 6
REMARK VINA RESULT:      -6.0      2.941      4.344
REMARK  Name = 320687
REMARK  6 active torsions:
REMARK  status: ('A' for Active; 'I' for Inactive)
REMARK    1  A    between atoms: C_3  and  O_5
REMARK    2  A    between atoms: O_5  and  C_8
REMARK    3  A    between atoms: C_14  and  C_15
REMARK    4  A    between atoms: CA_16  and  N_17
REMARK    5  A    between atoms: CA_16  and  C_18
REMARK    6  A    between atoms: C_19  and  C_23
REMARK                            x       y       z     vdW  Elec       q    Type
REMARK                         _______ _______ _______ _____ _____    ______ ____
ROOT
ATOM      1  C   UNL     1      21.000  38.822  44.221  0.00  0.00    +0.000 C 
ATOM      2  CA  UNL     1      19.810  39.419  44.393  0.00  0.00    +0.000 C 
ENDROOT
BRANCH   1   8
ATOM      3  C   UNL     1      24.575  40.202  46.024  0.00  0.00    +0.000 A 
ATOM      4  C   UNL     1      23.963  40.985  45.048  0.00  0.00    +0.000 A 
ATOM      5  C   UNL     1      24.167  38.878  46.212  0.00  0.00    +0.000 A 
ATOM      6  C   UNL     1      22.840  40.500  44.373  0.00  0.00    +0.000 A 
ATOM      7  C   UNL     1      23.034  38.401  45.553  0.00  0.00    +0.000 A 
ATOM      8  C   UNL     1      22.339  39.226  44.664  0.00  0.00    +0.000 A 
BRANCH   3   9
ATOM      9  O   UNL     1      25.552  40.792  46.799  0.00  0.00    +0.000 OA
BRANCH   9  12
ATOM     10 BR   UNL     1      27.934  41.475  48.645  0.00  0.00    +0.000 Br
ATOM     11  C   UNL     1      26.094  41.883  48.863  0.00  0.00    +0.000 A 
ATOM     12  C   UNL     1      25.142  41.529  47.899  0.00  0.00    +0.000 A 
ATOM     13  C   UNL     1      25.704  42.561  50.025  0.00  0.00    +0.000 A 
ATOM     14  C   UNL     1      23.815  41.953  48.073  0.00  0.00    +0.000 A 
ATOM     15  C   UNL     1      24.366  42.905  50.223  0.00  0.00    +0.000 A 
ATOM     16  C   UNL     1      23.424  42.614  49.239  0.00  0.00    +0.000 A 
ENDBRANCH   9  12
ENDBRANCH   3   9
ENDBRANCH   1   8
BRANCH   2  17
ATOM     17  N   UNL     1      19.526  40.525  45.169  0.00  0.00    +0.000 N 
ATOM     18  C   UNL     1      18.636  40.531  46.231  0.00  0.00    +0.000 C 
ATOM     19  O   UNL     1      17.996  39.552  46.607  0.00  0.00    +0.000 OA
ATOM     20  H   UNL     1      19.987  41.368  44.954  0.00  0.00    +0.000 HD
BRANCH  18  21
ATOM     21  C   UNL     1      18.328  41.843  46.855  0.00  0.00    +0.000 A 
ATOM     22  C   UNL     1      19.240  42.520  47.669  0.00  0.00    +0.000 A 
ATOM     23  C   UNL     1      17.115  42.468  46.527  0.00  0.00    +0.000 A 
ATOM     24  F   UNL     1      20.419  41.963  47.987  0.00  0.00    +0.000 F 
ATOM     25  C   UNL     1      18.975  43.806  48.133  0.00  0.00    +0.000 A 
ATOM     26  C   UNL     1      16.842  43.756  46.990  0.00  0.00    +0.000 A 
ATOM     27  C   UNL     1      17.779  44.415  47.779  0.00  0.00    +0.000 A 
ATOM     28  F   UNL     1      17.533  45.666  48.187  0.00  0.00    +0.000 F 
ENDBRANCH  18  21
ENDBRANCH   2  17
BRANCH   2  29
ATOM     29  C   UNL     1      18.668  38.830  43.611  0.00  0.00    +0.000 C 
ATOM     30  O   UNL     1      18.344  37.656  43.605  0.00  0.00    +0.000 OA
ATOM     31  OXT UNL     1      18.032  39.778  42.881  0.00  0.00    +0.000 OA
ENDBRANCH   2  29
TORSDOF 6
ENDMDL
MODEL 7
REMARK VINA RESULT:      -5.8      3.462      7.312
REMARK  Name = 320687
REMARK  6 active torsions:
REMARK  status: ('A' for Active; 'I' for Inactive)
REMARK    1  A    between atoms: C_3  and  O_5
REMARK    2  A    between atoms: O_5  and  C_8
REMARK    3  A    between atoms: C_14  and  C_15
REMARK    4  A    between atoms: CA_16  and  N_17
REMARK    5  A    between atoms: CA_16  and  C_18
REMARK    6  A    between atoms: C_19  and  C_23
REMARK                            x       y       z     vdW  Elec       q    Type
REMARK                         _______ _______ _______ _____ _____    ______ ____
ROOT
ATOM      1  C   UNL     1      24.259  40.755  46.310  0.00  0.00    +0.000 C 
ATOM      2  CA  UNL     1      23.955  41.602  47.306  0.00  0.00    +0.000 C 
ENDROOT
BRANCH   1   8
ATOM      3  C   UNL     1      21.338  39.401  43.557  0.00  0.00    +0.000 A 
ATOM      4  C   UNL     1      21.844  38.509  44.501  0.00  0.00    +0.000 A 
ATOM      5  C   UNL     1      21.970  40.631  43.352  0.00  0.00    +0.000 A 
ATOM      6  C   UNL     1      22.878  38.912  45.350  0.00  0.00    +0.000 A 
ATOM      7  C   UNL     1      22.989  41.040  44.213  0.00  0.00    +0.000 A 
ATOM      8  C   UNL     1      23.416  40.199  45.245  0.00  0.00    +0.000 A 
BRANCH   3   9
ATOM      9  O   UNL     1      20.195  39.034  42.878  0.00  0.00    +0.000 OA
BRANCH   9  12
ATOM     10 BR   UNL     1      18.081  37.341  44.367  0.00  0.00    +0.000 Br
ATOM     11  C   UNL     1      17.962  39.130  43.747  0.00  0.00    +0.000 A 
ATOM     12  C   UNL     1      19.041  39.765  43.119  0.00  0.00    +0.000 A 
ATOM     13  C   UNL     1      16.755  39.815  43.937  0.00  0.00    +0.000 A 
ATOM     14  C   UNL     1      18.922  41.122  42.779  0.00  0.00    +0.000 A 
ATOM     15  C   UNL     1      16.624  41.140  43.519  0.00  0.00    +0.000 A 
ATOM     16  C   UNL     1      17.713  41.797  42.953  0.00  0.00    +0.000 A 
ENDBRANCH   9  12
ENDBRANCH   3   9
ENDBRANCH   1   8
BRANCH   2  17
ATOM     17  N   UNL     1      22.771  42.285  47.500  0.00  0.00    +0.000 N 
ATOM     18  C   UNL     1      21.523  41.687  47.569  0.00  0.00    +0.000 C 
ATOM     19  O   UNL     1      21.323  40.479  47.464  0.00  0.00    +0.000 OA
ATOM     20  H   UNL     1      22.815  43.264  47.597  0.00  0.00    +0.000 HD
BRANCH  18  21
ATOM     21  C   UNL     1      20.339  42.584  47.619  0.00  0.00    +0.000 A 
ATOM     22  C   UNL     1      19.775  43.147  46.471  0.00  0.00    +0.000 A 
ATOM     23  C   UNL     1      19.709  42.786  48.856  0.00  0.00    +0.000 A 
ATOM     24  F   UNL     1      20.337  42.958  45.268  0.00  0.00    +0.000 F 
ATOM     25  C   UNL     1      18.590  43.877  46.535  0.00  0.00    +0.000 A 
ATOM     26  C   UNL     1      18.522  43.518  48.928  0.00  0.00    +0.000 A 
ATOM     27  C   UNL     1      17.971  44.046  47.766  0.00  0.00    +0.000 A 
ATOM     28  F   UNL     1      16.811  44.711  47.831  0.00  0.00    +0.000 F 
ENDBRANCH  18  21
ENDBRANCH   2  17
BRANCH   2  29
ATOM     29  C   UNL     1      25.022  41.788  48.349  0.00  0.00    +0.000 C 
ATOM     30  O   UNL     1      24.868  42.326  49.432  0.00  0.00    +0.000 OA
ATOM     31  OXT UNL     1      26.211  41.291  47.931  0.00  0.00    +0.000 OA
ENDBRANCH   2  29
TORSDOF 6
ENDMDL
