MODEL 1
REMARK VINA RESULT:      -0.5      0.000      0.000
REMARK  Name = 324498
REMARK  8 active torsions:
REMARK  status: ('A' for Active; 'I' for Inactive)
REMARK    1  A    between atoms: C_3  and  O_5
REMARK    2  A    between atoms: O_5  and  C_8
REMARK    3  A    between atoms: C_14  and  C_15
REMARK    4  A    between atoms: C_16  and  N_17
REMARK    5  A    between atoms: C_16  and  C_18
REMARK    6  A    between atoms: C_19  and  C_23
REMARK    7  A    between atoms: N_21  and  C_24
REMARK    8  A    between atoms: C_31  and  O_34
REMARK                            x       y       z     vdW  Elec       q    Type
REMARK                         _______ _______ _______ _____ _____    ______ ____
ROOT
ATOM      1  C   UNL     1      22.332  40.682  45.200  0.00  0.00    +0.000 C 
ATOM      2  C   UNL     1      21.843  41.269  46.305  0.00  0.00    +0.000 C 
ENDROOT
BRANCH   1   8
ATOM      3  C   UNL     1      26.183  41.463  43.621  0.00  0.00    +0.000 A 
ATOM      4  C   UNL     1      25.073  41.479  42.775  0.00  0.00    +0.000 A 
ATOM      5  C   UNL     1      26.066  40.924  44.906  0.00  0.00    +0.000 A 
ATOM      6  C   UNL     1      23.817  41.098  43.262  0.00  0.00    +0.000 A 
ATOM      7  C   UNL     1      24.810  40.561  45.397  0.00  0.00    +0.000 A 
ATOM      8  C   UNL     1      23.670  40.705  44.597  0.00  0.00    +0.000 A 
BRANCH   3   9
ATOM      9  O   UNL     1      27.359  42.001  43.142  0.00  0.00    +0.000 OA
BRANCH   9  12
ATOM     10 BR   UNL     1      27.944  44.840  44.211  0.00  0.00    +0.000 Br
ATOM     11  C   UNL     1      27.494  44.293  42.451  0.00  0.00    +0.000 A 
ATOM     12  C   UNL     1      27.286  42.944  42.130  0.00  0.00    +0.000 A 
ATOM     13  C   UNL     1      27.379  45.284  41.466  0.00  0.00    +0.000 A 
ATOM     14  C   UNL     1      27.054  42.600  40.790  0.00  0.00    +0.000 A 
ATOM     15  C   UNL     1      27.077  44.932  40.150  0.00  0.00    +0.000 A 
ATOM     16  C   UNL     1      26.927  43.590  39.810  0.00  0.00    +0.000 A 
ENDBRANCH   9  12
ENDBRANCH   3   9
ENDBRANCH   1   8
BRANCH   2  17
ATOM     17  N   UNL     1      22.630  41.944  47.225  0.00  0.00    +0.000 N 
ATOM     18  C   UNL     1      23.374  41.233  48.152  0.00  0.00    +0.000 C 
ATOM     19  O   UNL     1      23.469  40.010  48.162  0.00  0.00    +0.000 OA
ATOM     20  H   UNL     1      22.660  42.929  47.219  0.00  0.00    +0.000 HD
BRANCH  18  21
ATOM     21  C   UNL     1      24.096  42.032  49.175  0.00  0.00    +0.000 A 
ATOM     22  C   UNL     1      23.416  42.412  50.338  0.00  0.00    +0.000 A 
ATOM     23  C   UNL     1      25.470  42.272  49.057  0.00  0.00    +0.000 A 
ATOM     24  C   UNL     1      24.113  43.004  51.395  0.00  0.00    +0.000 A 
ATOM     25  C   UNL     1      26.165  42.852  50.123  0.00  0.00    +0.000 A 
ATOM     26  C   UNL     1      25.489  43.207  51.292  0.00  0.00    +0.000 A 
ENDBRANCH  18  21
ENDBRANCH   2  17
BRANCH   2  27
ATOM     27  C   UNL     1      20.352  41.042  46.551  0.00  0.00    +0.000 C 
ATOM     28  O   UNL     1      19.700  41.904  47.139  0.00  0.00    +0.000 OA
ATOM     29  N   UNL     1      19.840  39.849  46.081  0.00  0.00    +0.000 N 
ATOM     30  H   UNL     1      20.475  39.228  45.658  0.00  0.00    +0.000 HD
BRANCH  29  31
ATOM     31  C   UNL     1      18.482  39.434  46.148  0.00  0.00    +0.000 A 
ATOM     32  C   UNL     1      17.985  38.285  45.520  0.00  0.00    +0.000 A 
ATOM     33  C   UNL     1      17.592  40.219  46.891  0.00  0.00    +0.000 A 
ATOM     34  C   UNL     1      16.632  37.957  45.612  0.00  0.00    +0.000 A 
ATOM     35  C   UNL     1      16.231  39.888  46.971  0.00  0.00    +0.000 A 
ATOM     36  C   UNL     1      15.752  38.754  46.324  0.00  0.00    +0.000 A 
BRANCH  34  37
ATOM     37  O   UNL     1      16.126  36.842  45.007  0.00  0.00    +0.000 OA
ATOM     38  H   UNL     1      16.261  35.998  45.391  0.00  0.00    +0.000 HD
ENDBRANCH  34  37
ENDBRANCH  29  31
ENDBRANCH   2  27
TORSDOF 8
ENDMDL
MODEL 2
REMARK VINA RESULT:      -0.0      3.859      6.431
REMARK  Name = 324498
REMARK  8 active torsions:
REMARK  status: ('A' for Active; 'I' for Inactive)
REMARK    1  A    between atoms: C_3  and  O_5
REMARK    2  A    between atoms: O_5  and  C_8
REMARK    3  A    between atoms: C_14  and  C_15
REMARK    4  A    between atoms: C_16  and  N_17
REMARK    5  A    between atoms: C_16  and  C_18
REMARK    6  A    between atoms: C_19  and  C_23
REMARK    7  A    between atoms: N_21  and  C_24
REMARK    8  A    between atoms: C_31  and  O_34
REMARK                            x       y       z     vdW  Elec       q    Type
REMARK                         _______ _______ _______ _____ _____    ______ ____
ROOT
ATOM      1  C   UNL     1      20.745  40.193  43.687  0.00  0.00    +0.000 C 
ATOM      2  C   UNL     1      19.604  40.885  43.843  0.00  0.00    +0.000 C 
ENDROOT
BRANCH   1   8
ATOM      3  C   UNL     1      23.971  40.189  46.430  0.00  0.00    +0.000 A 
ATOM      4  C   UNL     1      23.419  41.401  46.014  0.00  0.00    +0.000 A 
ATOM      5  C   UNL     1      23.656  39.013  45.742  0.00  0.00    +0.000 A 
ATOM      6  C   UNL     1      22.440  41.417  45.013  0.00  0.00    +0.000 A 
ATOM      7  C   UNL     1      22.666  39.027  44.757  0.00  0.00    +0.000 A 
ATOM      8  C   UNL     1      22.010  40.220  44.431  0.00  0.00    +0.000 A 
BRANCH   3   9
ATOM      9  O   UNL     1      24.807  40.210  47.527  0.00  0.00    +0.000 OA
BRANCH   9  12
ATOM     10 BR   UNL     1      27.545  41.448  48.247  0.00  0.00    +0.000 Br
ATOM     11  C   UNL     1      25.820  41.894  48.900  0.00  0.00    +0.000 A 
ATOM     12  C   UNL     1      24.667  41.243  48.440  0.00  0.00    +0.000 A 
ATOM     13  C   UNL     1      25.726  42.909  49.863  0.00  0.00    +0.000 A 
ATOM     14  C   UNL     1      23.417  41.689  48.892  0.00  0.00    +0.000 A 
ATOM     15  C   UNL     1      24.479  43.294  50.355  0.00  0.00    +0.000 A 
ATOM     16  C   UNL     1      23.325  42.694  49.861  0.00  0.00    +0.000 A 
ENDBRANCH   9  12
ENDBRANCH   3   9
ENDBRANCH   1   8
BRANCH   2  17
ATOM     17  N   UNL     1      19.358  41.720  44.922  0.00  0.00    +0.000 N 
ATOM     18  C   UNL     1      18.384  41.383  45.848  0.00  0.00    +0.000 C 
ATOM     19  O   UNL     1      17.768  40.321  45.841  0.00  0.00    +0.000 OA
ATOM     20  H   UNL     1      19.874  42.551  45.030  0.00  0.00    +0.000 HD
BRANCH  18  21
ATOM     21  C   UNL     1      18.100  42.386  46.906  0.00  0.00    +0.000 A 
ATOM     22  C   UNL     1      19.036  42.570  47.931  0.00  0.00    +0.000 A 
ATOM     23  C   UNL     1      16.995  43.241  46.804  0.00  0.00    +0.000 A 
ATOM     24  C   UNL     1      18.885  43.625  48.835  0.00  0.00    +0.000 A 
ATOM     25  C   UNL     1      16.859  44.304  47.703  0.00  0.00    +0.000 A 
ATOM     26  C   UNL     1      17.807  44.500  48.708  0.00  0.00    +0.000 A 
ENDBRANCH  18  21
ENDBRANCH   2  17
BRANCH   2  27
ATOM     27  C   UNL     1      18.528  40.599  42.798  0.00  0.00    +0.000 C 
ATOM     28  O   UNL     1      18.105  39.451  42.667  0.00  0.00    +0.000 OA
ATOM     29  N   UNL     1      18.103  41.685  42.058  0.00  0.00    +0.000 N 
ATOM     30  H   UNL     1      18.547  42.545  42.236  0.00  0.00    +0.000 HD
BRANCH  29  31
ATOM     31  C   UNL     1      17.086  41.680  41.066  0.00  0.00    +0.000 A 
ATOM     32  C   UNL     1      15.759  41.304  41.309  0.00  0.00    +0.000 A 
ATOM     33  C   UNL     1      17.433  42.079  39.769  0.00  0.00    +0.000 A 
ATOM     34  C   UNL     1      14.823  41.302  40.275  0.00  0.00    +0.000 A 
ATOM     35  C   UNL     1      16.488  42.065  38.732  0.00  0.00    +0.000 A 
ATOM     36  C   UNL     1      15.180  41.670  38.988  0.00  0.00    +0.000 A 
BRANCH  34  37
ATOM     37  O   UNL     1      13.524  40.938  40.490  0.00  0.00    +0.000 OA
ATOM     38  H   UNL     1      13.305  40.035  40.615  0.00  0.00    +0.000 HD
ENDBRANCH  34  37
ENDBRANCH  29  31
ENDBRANCH   2  27
TORSDOF 8
ENDMDL
MODEL 3
REMARK VINA RESULT:       0.4      1.588      2.187
REMARK  Name = 324498
REMARK  8 active torsions:
REMARK  status: ('A' for Active; 'I' for Inactive)
REMARK    1  A    between atoms: C_3  and  O_5
REMARK    2  A    between atoms: O_5  and  C_8
REMARK    3  A    between atoms: C_14  and  C_15
REMARK    4  A    between atoms: C_16  and  N_17
REMARK    5  A    between atoms: C_16  and  C_18
REMARK    6  A    between atoms: C_19  and  C_23
REMARK    7  A    between atoms: N_21  and  C_24
REMARK    8  A    between atoms: C_31  and  O_34
REMARK                            x       y       z     vdW  Elec       q    Type
REMARK                         _______ _______ _______ _____ _____    ______ ____
ROOT
ATOM      1  C   UNL     1      23.150  40.687  44.451  0.00  0.00    +0.000 C 
ATOM      2  C   UNL     1      22.544  41.049  45.594  0.00  0.00    +0.000 C 
ENDROOT
BRANCH   1   8
ATOM      3  C   UNL     1      26.875  42.126  43.041  0.00  0.00    +0.000 A 
ATOM      4  C   UNL     1      25.880  41.772  42.128  0.00  0.00    +0.000 A 
ATOM      5  C   UNL     1      26.750  41.750  44.382  0.00  0.00    +0.000 A 
ATOM      6  C   UNL     1      24.697  41.177  42.580  0.00  0.00    +0.000 A 
ATOM      7  C   UNL     1      25.561  41.173  44.834  0.00  0.00    +0.000 A 
ATOM      8  C   UNL     1      24.505  40.940  43.945  0.00  0.00    +0.000 A 
BRANCH   3   9
ATOM      9  O   UNL     1      27.946  42.855  42.568  0.00  0.00    +0.000 OA
BRANCH   9  12
ATOM     10 BR   UNL     1      27.641  44.213  39.810  0.00  0.00    +0.000 Br
ATOM     11  C   UNL     1      27.804  45.009  41.525  0.00  0.00    +0.000 A 
ATOM     12  C   UNL     1      27.907  44.235  42.689  0.00  0.00    +0.000 A 
ATOM     13  C   UNL     1      27.812  46.409  41.598  0.00  0.00    +0.000 A 
ATOM     14  C   UNL     1      27.925  44.887  43.930  0.00  0.00    +0.000 A 
ATOM     15  C   UNL     1      27.902  47.044  42.838  0.00  0.00    +0.000 A 
ATOM     16  C   UNL     1      27.946  46.284  44.003  0.00  0.00    +0.000 A 
ENDBRANCH   9  12
ENDBRANCH   3   9
ENDBRANCH   1   8
BRANCH   2  17
ATOM     17  N   UNL     1      23.202  41.661  46.649  0.00  0.00    +0.000 N 
ATOM     18  C   UNL     1      23.737  40.892  47.669  0.00  0.00    +0.000 C 
ATOM     19  O   UNL     1      23.758  39.666  47.665  0.00  0.00    +0.000 OA
ATOM     20  H   UNL     1      23.290  42.642  46.672  0.00  0.00    +0.000 HD
BRANCH  18  21
ATOM     21  C   UNL     1      24.321  41.630  48.819  0.00  0.00    +0.000 A 
ATOM     22  C   UNL     1      25.671  41.998  48.769  0.00  0.00    +0.000 A 
ATOM     23  C   UNL     1      23.508  42.085  49.865  0.00  0.00    +0.000 A 
ATOM     24  C   UNL     1      26.201  42.844  49.746  0.00  0.00    +0.000 A 
ATOM     25  C   UNL     1      24.042  42.943  50.831  0.00  0.00    +0.000 A 
ATOM     26  C   UNL     1      25.382  43.329  50.766  0.00  0.00    +0.000 A 
ENDBRANCH  18  21
ENDBRANCH   2  17
BRANCH   2  27
ATOM     27  C   UNL     1      21.079  40.631  45.707  0.00  0.00    +0.000 C 
ATOM     28  O   UNL     1      20.581  40.479  46.822  0.00  0.00    +0.000 OA
ATOM     29  N   UNL     1      20.410  40.449  44.514  0.00  0.00    +0.000 N 
ATOM     30  H   UNL     1      20.933  40.568  43.689  0.00  0.00    +0.000 HD
BRANCH  29  31
ATOM     31  C   UNL     1      19.039  40.107  44.362  0.00  0.00    +0.000 A 
ATOM     32  C   UNL     1      18.393  39.118  45.114  0.00  0.00    +0.000 A 
ATOM     33  C   UNL     1      18.291  40.805  43.406  0.00  0.00    +0.000 A 
ATOM     34  C   UNL     1      17.048  38.824  44.889  0.00  0.00    +0.000 A 
ATOM     35  C   UNL     1      16.942  40.497  43.178  0.00  0.00    +0.000 A 
ATOM     36  C   UNL     1      16.322  39.498  43.921  0.00  0.00    +0.000 A 
BRANCH  34  37
ATOM     37  O   UNL     1      16.398  37.863  45.610  0.00  0.00    +0.000 OA
ATOM     38  H   UNL     1      15.844  38.108  46.325  0.00  0.00    +0.000 HD
ENDBRANCH  34  37
ENDBRANCH  29  31
ENDBRANCH   2  27
TORSDOF 8
ENDMDL
MODEL 4
REMARK VINA RESULT:       0.7      3.485      5.977
REMARK  Name = 324498
REMARK  8 active torsions:
REMARK  status: ('A' for Active; 'I' for Inactive)
REMARK    1  A    between atoms: C_3  and  O_5
REMARK    2  A    between atoms: O_5  and  C_8
REMARK    3  A    between atoms: C_14  and  C_15
REMARK    4  A    between atoms: C_16  and  N_17
REMARK    5  A    between atoms: C_16  and  C_18
REMARK    6  A    between atoms: C_19  and  C_23
REMARK    7  A    between atoms: N_21  and  C_24
REMARK    8  A    between atoms: C_31  and  O_34
REMARK                            x       y       z     vdW  Elec       q    Type
REMARK                         _______ _______ _______ _____ _____    ______ ____
ROOT
ATOM      1  C   UNL     1      20.635  39.227  44.521  0.00  0.00    +0.000 C 
ATOM      2  C   UNL     1      19.353  39.608  44.649  0.00  0.00    +0.000 C 
ENDROOT
BRANCH   1   8
ATOM      3  C   UNL     1      24.294  40.953  45.774  0.00  0.00    +0.000 A 
ATOM      4  C   UNL     1      23.092  41.609  46.044  0.00  0.00    +0.000 A 
ATOM      5  C   UNL     1      24.314  39.892  44.864  0.00  0.00    +0.000 A 
ATOM      6  C   UNL     1      21.891  41.111  45.523  0.00  0.00    +0.000 A 
ATOM      7  C   UNL     1      23.113  39.385  44.360  0.00  0.00    +0.000 A 
ATOM      8  C   UNL     1      21.892  39.955  44.736  0.00  0.00    +0.000 A 
BRANCH   3   9
ATOM      9  O   UNL     1      25.421  41.385  46.441  0.00  0.00    +0.000 OA
BRANCH   9  12
ATOM     10 BR   UNL     1      23.739  39.496  48.215  0.00  0.00    +0.000 Br
ATOM     11  C   UNL     1      24.507  41.176  48.647  0.00  0.00    +0.000 A 
ATOM     12  C   UNL     1      25.273  41.896  47.720  0.00  0.00    +0.000 A 
ATOM     13  C   UNL     1      24.290  41.683  49.936  0.00  0.00    +0.000 A 
ATOM     14  C   UNL     1      25.892  43.084  48.137  0.00  0.00    +0.000 A 
ATOM     15  C   UNL     1      24.855  42.902  50.313  0.00  0.00    +0.000 A 
ATOM     16  C   UNL     1      25.666  43.595  49.419  0.00  0.00    +0.000 A 
ENDBRANCH   9  12
ENDBRANCH   3   9
ENDBRANCH   1   8
BRANCH   2  17
ATOM     17  N   UNL     1      18.965  40.823  45.191  0.00  0.00    +0.000 N 
ATOM     18  C   UNL     1      18.515  40.884  46.500  0.00  0.00    +0.000 C 
ATOM     19  O   UNL     1      18.522  39.930  47.273  0.00  0.00    +0.000 OA
ATOM     20  H   UNL     1      19.011  41.642  44.647  0.00  0.00    +0.000 HD
BRANCH  18  21
ATOM     21  C   UNL     1      18.008  42.200  46.966  0.00  0.00    +0.000 A 
ATOM     22  C   UNL     1      18.852  43.016  47.728  0.00  0.00    +0.000 A 
ATOM     23  C   UNL     1      16.770  42.686  46.528  0.00  0.00    +0.000 A 
ATOM     24  C   UNL     1      18.473  44.328  48.027  0.00  0.00    +0.000 A 
ATOM     25  C   UNL     1      16.403  44.004  46.819  0.00  0.00    +0.000 A 
ATOM     26  C   UNL     1      17.257  44.825  47.557  0.00  0.00    +0.000 A 
ENDBRANCH  18  21
ENDBRANCH   2  17
BRANCH   2  27
ATOM     27  C   UNL     1      18.324  38.548  44.259  0.00  0.00    +0.000 C 
ATOM     28  O   UNL     1      17.398  38.854  43.509  0.00  0.00    +0.000 OA
ATOM     29  N   UNL     1      18.519  37.292  44.798  0.00  0.00    +0.000 N 
ATOM     30  H   UNL     1      19.279  37.185  45.414  0.00  0.00    +0.000 HD
BRANCH  29  31
ATOM     31  C   UNL     1      17.728  36.138  44.548  0.00  0.00    +0.000 A 
ATOM     32  C   UNL     1      17.599  35.537  43.290  0.00  0.00    +0.000 A 
ATOM     33  C   UNL     1      17.042  35.567  45.627  0.00  0.00    +0.000 A 
ATOM     34  C   UNL     1      16.782  34.419  43.120  0.00  0.00    +0.000 A 
ATOM     35  C   UNL     1      16.215  34.449  45.447  0.00  0.00    +0.000 A 
ATOM     36  C   UNL     1      16.083  33.877  44.186  0.00  0.00    +0.000 A 
BRANCH  34  37
ATOM     37  O   UNL     1      16.641  33.818  41.902  0.00  0.00    +0.000 OA
ATOM     38  H   UNL     1      15.862  33.955  41.400  0.00  0.00    +0.000 HD
ENDBRANCH  34  37
ENDBRANCH  29  31
ENDBRANCH   2  27
TORSDOF 8
ENDMDL
MODEL 5
REMARK VINA RESULT:       0.8      4.268      8.648
REMARK  Name = 324498
REMARK  8 active torsions:
REMARK  status: ('A' for Active; 'I' for Inactive)
REMARK    1  A    between atoms: C_3  and  O_5
REMARK    2  A    between atoms: O_5  and  C_8
REMARK    3  A    between atoms: C_14  and  C_15
REMARK    4  A    between atoms: C_16  and  N_17
REMARK    5  A    between atoms: C_16  and  C_18
REMARK    6  A    between atoms: C_19  and  C_23
REMARK    7  A    between atoms: N_21  and  C_24
REMARK    8  A    between atoms: C_31  and  O_34
REMARK                            x       y       z     vdW  Elec       q    Type
REMARK                         _______ _______ _______ _____ _____    ______ ____
ROOT
ATOM      1  C   UNL     1      21.869  42.097  45.809  0.00  0.00    +0.000 C 
ATOM      2  C   UNL     1      21.658  41.079  46.660  0.00  0.00    +0.000 C 
ENDROOT
BRANCH   1   8
ATOM      3  C   UNL     1      19.414  42.798  42.431  0.00  0.00    +0.000 A 
ATOM      4  C   UNL     1      20.246  41.678  42.460  0.00  0.00    +0.000 A 
ATOM      5  C   UNL     1      19.592  43.818  43.370  0.00  0.00    +0.000 A 
ATOM      6  C   UNL     1      21.153  41.508  43.513  0.00  0.00    +0.000 A 
ATOM      7  C   UNL     1      20.483  43.638  44.431  0.00  0.00    +0.000 A 
ATOM      8  C   UNL     1      21.223  42.455  44.540  0.00  0.00    +0.000 A 
BRANCH   3   9
ATOM      9  O   UNL     1      18.429  42.837  41.465  0.00  0.00    +0.000 OA
BRANCH   9  12
ATOM     10 BR   UNL     1      16.870  42.639  38.806  0.00  0.00    +0.000 Br
ATOM     11  C   UNL     1      16.539  41.762  40.456  0.00  0.00    +0.000 A 
ATOM     12  C   UNL     1      17.372  41.947  41.568  0.00  0.00    +0.000 A 
ATOM     13  C   UNL     1      15.429  40.910  40.533  0.00  0.00    +0.000 A 
ATOM     14  C   UNL     1      17.127  41.193  42.725  0.00  0.00    +0.000 A 
ATOM     15  C   UNL     1      15.157  40.220  41.715  0.00  0.00    +0.000 A 
ATOM     16  C   UNL     1      16.012  40.351  42.805  0.00  0.00    +0.000 A 
ENDBRANCH   9  12
ENDBRANCH   3   9
ENDBRANCH   1   8
BRANCH   2  17
ATOM     17  N   UNL     1      20.602  40.189  46.542  0.00  0.00    +0.000 N 
ATOM     18  C   UNL     1      19.300  40.660  46.525  0.00  0.00    +0.000 C 
ATOM     19  O   UNL     1      19.001  41.850  46.510  0.00  0.00    +0.000 OA
ATOM     20  H   UNL     1      20.778  39.223  46.469  0.00  0.00    +0.000 HD
BRANCH  18  21
ATOM     21  C   UNL     1      18.224  39.636  46.516  0.00  0.00    +0.000 A 
ATOM     22  C   UNL     1      17.137  39.791  47.383  0.00  0.00    +0.000 A 
ATOM     23  C   UNL     1      18.216  38.616  45.556  0.00  0.00    +0.000 A 
ATOM     24  C   UNL     1      16.027  38.948  47.271  0.00  0.00    +0.000 A 
ATOM     25  C   UNL     1      17.097  37.785  45.440  0.00  0.00    +0.000 A 
ATOM     26  C   UNL     1      16.003  37.958  46.289  0.00  0.00    +0.000 A 
ENDBRANCH  18  21
ENDBRANCH   2  17
BRANCH   2  27
ATOM     27  C   UNL     1      22.607  41.031  47.856  0.00  0.00    +0.000 C 
ATOM     28  O   UNL     1      22.913  39.942  48.339  0.00  0.00    +0.000 OA
ATOM     29  N   UNL     1      23.057  42.252  48.317  0.00  0.00    +0.000 N 
ATOM     30  H   UNL     1      22.709  43.054  47.865  0.00  0.00    +0.000 HD
BRANCH  29  31
ATOM     31  C   UNL     1      23.977  42.462  49.380  0.00  0.00    +0.000 A 
ATOM     32  C   UNL     1      23.602  42.593  50.723  0.00  0.00    +0.000 A 
ATOM     33  C   UNL     1      25.339  42.539  49.063  0.00  0.00    +0.000 A 
ATOM     34  C   UNL     1      24.563  42.822  51.707  0.00  0.00    +0.000 A 
ATOM     35  C   UNL     1      26.299  42.780  50.057  0.00  0.00    +0.000 A 
ATOM     36  C   UNL     1      25.906  42.926  51.383  0.00  0.00    +0.000 A 
BRANCH  34  37
ATOM     37  O   UNL     1      24.219  42.953  53.022  0.00  0.00    +0.000 OA
ATOM     38  H   UNL     1      24.844  43.281  53.639  0.00  0.00    +0.000 HD
ENDBRANCH  34  37
ENDBRANCH  29  31
ENDBRANCH   2  27
TORSDOF 8
ENDMDL
