MODEL 1
REMARK VINA RESULT:      -8.1      0.000      0.000
REMARK  Name = 320687
REMARK  6 active torsions:
REMARK  status: ('A' for Active; 'I' for Inactive)
REMARK    1  A    between atoms: C_3  and  O_5
REMARK    2  A    between atoms: O_5  and  C_8
REMARK    3  A    between atoms: C_14  and  C_15
REMARK    4  A    between atoms: CA_16  and  N_17
REMARK    5  A    between atoms: CA_16  and  C_18
REMARK    6  A    between atoms: C_19  and  C_23
REMARK                            x       y       z     vdW  Elec       q    Type
REMARK                         _______ _______ _______ _____ _____    ______ ____
ROOT
ATOM      1  C   UNL     1      20.197  42.540  43.454  0.00  0.00    +0.000 C 
ATOM      2  CA  UNL     1      19.053  41.951  43.070  0.00  0.00    +0.000 C 
ENDROOT
BRANCH   1   8
ATOM      3  C   UNL     1      22.416  41.238  46.825  0.00  0.00    +0.000 A 
ATOM      4  C   UNL     1      22.033  42.576  46.737  0.00  0.00    +0.000 A 
ATOM      5  C   UNL     1      22.304  40.405  45.708  0.00  0.00    +0.000 A 
ATOM      6  C   UNL     1      21.389  43.035  45.585  0.00  0.00    +0.000 A 
ATOM      7  C   UNL     1      21.644  40.861  44.564  0.00  0.00    +0.000 A 
ATOM      8  C   UNL     1      21.139  42.167  44.516  0.00  0.00    +0.000 A 
BRANCH   3   9
ATOM      9  O   UNL     1      22.861  40.780  48.048  0.00  0.00    +0.000 OA
BRANCH   9  12
ATOM     10 BR   UNL     1      25.639  40.546  46.718  0.00  0.00    +0.000 Br
ATOM     11  C   UNL     1      25.132  41.517  48.266  0.00  0.00    +0.000 A 
ATOM     12  C   UNL     1      23.805  41.546  48.714  0.00  0.00    +0.000 A 
ATOM     13  C   UNL     1      26.127  42.217  48.960  0.00  0.00    +0.000 A 
ATOM     14  C   UNL     1      23.478  42.365  49.807  0.00  0.00    +0.000 A 
ATOM     15  C   UNL     1      25.799  42.964  50.093  0.00  0.00    +0.000 A 
ATOM     16  C   UNL     1      24.474  43.050  50.508  0.00  0.00    +0.000 A 
ENDBRANCH   9  12
ENDBRANCH   3   9
ENDBRANCH   1   8
BRANCH   2  17
ATOM     17  N   UNL     1      18.552  40.732  43.490  0.00  0.00    +0.000 N 
ATOM     18  C   UNL     1      17.970  40.508  44.726  0.00  0.00    +0.000 C 
ATOM     19  O   UNL     1      17.828  41.363  45.593  0.00  0.00    +0.000 OA
ATOM     20  H   UNL     1      18.612  39.972  42.868  0.00  0.00    +0.000 HD
BRANCH  18  21
ATOM     21  C   UNL     1      17.635  39.105  45.077  0.00  0.00    +0.000 A 
ATOM     22  C   UNL     1      16.658  38.775  46.030  0.00  0.00    +0.000 A 
ATOM     23  C   UNL     1      18.250  38.072  44.357  0.00  0.00    +0.000 A 
ATOM     24  F   UNL     1      16.033  39.742  46.722  0.00  0.00    +0.000 F 
ATOM     25  C   UNL     1      16.283  37.456  46.252  0.00  0.00    +0.000 A 
ATOM     26  C   UNL     1      17.877  36.744  44.575  0.00  0.00    +0.000 A 
ATOM     27  C   UNL     1      16.892  36.451  45.513  0.00  0.00    +0.000 A 
ATOM     28  F   UNL     1      16.509  35.182  45.693  0.00  0.00    +0.000 F 
ENDBRANCH  18  21
ENDBRANCH   2  17
BRANCH   2  29
ATOM     29  C   UNL     1      18.215  42.728  42.093  0.00  0.00    +0.000 C 
ATOM     30  O   UNL     1      18.417  43.878  41.744  0.00  0.00    +0.000 OA
ATOM     31  OXT UNL     1      17.176  41.986  41.641  0.00  0.00    +0.000 OA
ENDBRANCH   2  29
TORSDOF 6
ENDMDL
MODEL 2
REMARK VINA RESULT:      -7.2      3.803      7.971
REMARK  Name = 320687
REMARK  6 active torsions:
REMARK  status: ('A' for Active; 'I' for Inactive)
REMARK    1  A    between atoms: C_3  and  O_5
REMARK    2  A    between atoms: O_5  and  C_8
REMARK    3  A    between atoms: C_14  and  C_15
REMARK    4  A    between atoms: CA_16  and  N_17
REMARK    5  A    between atoms: CA_16  and  C_18
REMARK    6  A    between atoms: C_19  and  C_23
REMARK                            x       y       z     vdW  Elec       q    Type
REMARK                         _______ _______ _______ _____ _____    ______ ____
ROOT
ATOM      1  C   UNL     1      23.070  38.888  44.526  0.00  0.00    +0.000 C 
ATOM      2  CA  UNL     1      23.745  38.848  45.686  0.00  0.00    +0.000 C 
ENDROOT
BRANCH   1   8
ATOM      3  C   UNL     1      19.855  41.534  43.723  0.00  0.00    +0.000 A 
ATOM      4  C   UNL     1      19.817  40.239  43.206  0.00  0.00    +0.000 A 
ATOM      5  C   UNL     1      21.042  42.034  44.265  0.00  0.00    +0.000 A 
ATOM      6  C   UNL     1      20.916  39.393  43.382  0.00  0.00    +0.000 A 
ATOM      7  C   UNL     1      22.133  41.182  44.456  0.00  0.00    +0.000 A 
ATOM      8  C   UNL     1      22.056  39.841  44.058  0.00  0.00    +0.000 A 
BRANCH   3   9
ATOM      9  O   UNL     1      18.683  42.262  43.707  0.00  0.00    +0.000 OA
BRANCH   9  12
ATOM     10 BR   UNL     1      16.748  39.943  44.359  0.00  0.00    +0.000 Br
ATOM     11  C   UNL     1      17.091  41.527  45.343  0.00  0.00    +0.000 A 
ATOM     12  C   UNL     1      18.040  42.466  44.918  0.00  0.00    +0.000 A 
ATOM     13  C   UNL     1      16.366  41.740  46.523  0.00  0.00    +0.000 A 
ATOM     14  C   UNL     1      18.318  43.567  45.744  0.00  0.00    +0.000 A 
ATOM     15  C   UNL     1      16.598  42.881  47.293  0.00  0.00    +0.000 A 
ATOM     16  C   UNL     1      17.583  43.787  46.911  0.00  0.00    +0.000 A 
ENDBRANCH   9  12
ENDBRANCH   3   9
ENDBRANCH   1   8
BRANCH   2  17
ATOM     17  N   UNL     1      23.762  39.807  46.683  0.00  0.00    +0.000 N 
ATOM     18  C   UNL     1      24.754  40.759  46.838  0.00  0.00    +0.000 C 
ATOM     19  O   UNL     1      25.733  40.868  46.107  0.00  0.00    +0.000 OA
ATOM     20  H   UNL     1      23.018  39.812  47.327  0.00  0.00    +0.000 HD
BRANCH  18  21
ATOM     21  C   UNL     1      24.702  41.606  48.056  0.00  0.00    +0.000 A 
ATOM     22  C   UNL     1      23.499  41.934  48.701  0.00  0.00    +0.000 A 
ATOM     23  C   UNL     1      25.911  42.010  48.639  0.00  0.00    +0.000 A 
ATOM     24  F   UNL     1      22.324  41.542  48.181  0.00  0.00    +0.000 F 
ATOM     25  C   UNL     1      23.491  42.628  49.904  0.00  0.00    +0.000 A 
ATOM     26  C   UNL     1      25.910  42.707  49.849  0.00  0.00    +0.000 A 
ATOM     27  C   UNL     1      24.701  43.000  50.473  0.00  0.00    +0.000 A 
ATOM     28  F   UNL     1      24.704  43.635  51.651  0.00  0.00    +0.000 F 
ENDBRANCH  18  21
ENDBRANCH   2  17
BRANCH   2  29
ATOM     29  C   UNL     1      24.548  37.601  45.931  0.00  0.00    +0.000 C 
ATOM     30  O   UNL     1      25.605  37.321  45.392  0.00  0.00    +0.000 OA
ATOM     31  OXT UNL     1      23.941  36.798  46.837  0.00  0.00    +0.000 OA
ENDBRANCH   2  29
TORSDOF 6
ENDMDL
MODEL 3
REMARK VINA RESULT:      -6.7      3.598      8.263
REMARK  Name = 320687
REMARK  6 active torsions:
REMARK  status: ('A' for Active; 'I' for Inactive)
REMARK    1  A    between atoms: C_3  and  O_5
REMARK    2  A    between atoms: O_5  and  C_8
REMARK    3  A    between atoms: C_14  and  C_15
REMARK    4  A    between atoms: CA_16  and  N_17
REMARK    5  A    between atoms: CA_16  and  C_18
REMARK    6  A    between atoms: C_19  and  C_23
REMARK                            x       y       z     vdW  Elec       q    Type
REMARK                         _______ _______ _______ _____ _____    ______ ____
ROOT
ATOM      1  C   UNL     1      23.051  39.089  44.560  0.00  0.00    +0.000 C 
ATOM      2  CA  UNL     1      23.863  39.123  45.629  0.00  0.00    +0.000 C 
ENDROOT
BRANCH   1   8
ATOM      3  C   UNL     1      19.258  40.947  44.182  0.00  0.00    +0.000 A 
ATOM      4  C   UNL     1      19.619  39.946  43.281  0.00  0.00    +0.000 A 
ATOM      5  C   UNL     1      20.223  41.511  45.021  0.00  0.00    +0.000 A 
ATOM      6  C   UNL     1      20.904  39.397  43.336  0.00  0.00    +0.000 A 
ATOM      7  C   UNL     1      21.501  40.951  45.087  0.00  0.00    +0.000 A 
ATOM      8  C   UNL     1      21.832  39.856  44.277  0.00  0.00    +0.000 A 
BRANCH   3   9
ATOM      9  O   UNL     1      17.929  41.315  44.229  0.00  0.00    +0.000 OA
BRANCH   9  12
ATOM     10 BR   UNL     1      17.117  43.080  46.631  0.00  0.00    +0.000 Br
ATOM     11  C   UNL     1      16.681  41.269  46.275  0.00  0.00    +0.000 A 
ATOM     12  C   UNL     1      17.105  40.627  45.105  0.00  0.00    +0.000 A 
ATOM     13  C   UNL     1      15.911  40.579  47.220  0.00  0.00    +0.000 A 
ATOM     14  C   UNL     1      16.663  39.317  44.854  0.00  0.00    +0.000 A 
ATOM     15  C   UNL     1      15.546  39.250  46.993  0.00  0.00    +0.000 A 
ATOM     16  C   UNL     1      15.910  38.624  45.805  0.00  0.00    +0.000 A 
ENDBRANCH   9  12
ENDBRANCH   3   9
ENDBRANCH   1   8
BRANCH   2  17
ATOM     17  N   UNL     1      23.832  40.022  46.681  0.00  0.00    +0.000 N 
ATOM     18  C   UNL     1      24.755  41.035  46.872  0.00  0.00    +0.000 C 
ATOM     19  O   UNL     1      25.707  41.258  46.131  0.00  0.00    +0.000 OA
ATOM     20  H   UNL     1      23.105  39.936  47.337  0.00  0.00    +0.000 HD
BRANCH  18  21
ATOM     21  C   UNL     1      24.670  41.805  48.139  0.00  0.00    +0.000 A 
ATOM     22  C   UNL     1      23.452  42.063  48.788  0.00  0.00    +0.000 A 
ATOM     23  C   UNL     1      25.862  42.204  48.758  0.00  0.00    +0.000 A 
ATOM     24  F   UNL     1      22.293  41.673  48.233  0.00  0.00    +0.000 F 
ATOM     25  C   UNL     1      23.414  42.682  50.031  0.00  0.00    +0.000 A 
ATOM     26  C   UNL     1      25.830  42.827  50.008  0.00  0.00    +0.000 A 
ATOM     27  C   UNL     1      24.609  43.050  50.635  0.00  0.00    +0.000 A 
ATOM     28  F   UNL     1      24.584  43.613  51.848  0.00  0.00    +0.000 F 
ENDBRANCH  18  21
ENDBRANCH   2  17
BRANCH   2  29
ATOM     29  C   UNL     1      24.901  38.038  45.696  0.00  0.00    +0.000 C 
ATOM     30  O   UNL     1      26.054  38.136  45.315  0.00  0.00    +0.000 OA
ATOM     31  OXT UNL     1      24.390  36.904  46.234  0.00  0.00    +0.000 OA
ENDBRANCH   2  29
TORSDOF 6
ENDMDL
MODEL 4
REMARK VINA RESULT:      -6.6      3.372      7.239
REMARK  Name = 320687
REMARK  6 active torsions:
REMARK  status: ('A' for Active; 'I' for Inactive)
REMARK    1  A    between atoms: C_3  and  O_5
REMARK    2  A    between atoms: O_5  and  C_8
REMARK    3  A    between atoms: C_14  and  C_15
REMARK    4  A    between atoms: CA_16  and  N_17
REMARK    5  A    between atoms: CA_16  and  C_18
REMARK    6  A    between atoms: C_19  and  C_23
REMARK                            x       y       z     vdW  Elec       q    Type
REMARK                         _______ _______ _______ _____ _____    ______ ____
ROOT
ATOM      1  C   UNL     1      24.027  40.764  45.924  0.00  0.00    +0.000 C 
ATOM      2  CA  UNL     1      23.783  41.599  46.948  0.00  0.00    +0.000 C 
ENDROOT
BRANCH   1   8
ATOM      3  C   UNL     1      20.925  39.354  43.399  0.00  0.00    +0.000 A 
ATOM      4  C   UNL     1      21.611  38.448  44.206  0.00  0.00    +0.000 A 
ATOM      5  C   UNL     1      21.423  40.649  43.225  0.00  0.00    +0.000 A 
ATOM      6  C   UNL     1      22.699  38.886  44.967  0.00  0.00    +0.000 A 
ATOM      7  C   UNL     1      22.499  41.091  43.999  0.00  0.00    +0.000 A 
ATOM      8  C   UNL     1      23.112  40.222  44.912  0.00  0.00    +0.000 A 
BRANCH   3   9
ATOM      9  O   UNL     1      19.743  38.932  42.827  0.00  0.00    +0.000 OA
BRANCH   9  12
ATOM     10 BR   UNL     1      18.009  41.490  42.826  0.00  0.00    +0.000 Br
ATOM     11  C   UNL     1      17.774  39.885  43.809  0.00  0.00    +0.000 A 
ATOM     12  C   UNL     1      18.642  38.797  43.659  0.00  0.00    +0.000 A 
ATOM     13  C   UNL     1      16.696  39.810  44.700  0.00  0.00    +0.000 A 
ATOM     14  C   UNL     1      18.354  37.603  44.340  0.00  0.00    +0.000 A 
ATOM     15  C   UNL     1      16.468  38.642  45.430  0.00  0.00    +0.000 A 
ATOM     16  C   UNL     1      17.288  37.534  45.240  0.00  0.00    +0.000 A 
ENDBRANCH   9  12
ENDBRANCH   3   9
ENDBRANCH   1   8
BRANCH   2  17
ATOM     17  N   UNL     1      22.614  42.289  47.211  0.00  0.00    +0.000 N 
ATOM     18  C   UNL     1      21.382  41.694  47.415  0.00  0.00    +0.000 C 
ATOM     19  O   UNL     1      21.181  40.484  47.389  0.00  0.00    +0.000 OA
ATOM     20  H   UNL     1      22.661  43.271  47.257  0.00  0.00    +0.000 HD
BRANCH  18  21
ATOM     21  C   UNL     1      20.201  42.588  47.522  0.00  0.00    +0.000 A 
ATOM     22  C   UNL     1      19.591  43.175  46.401  0.00  0.00    +0.000 A 
ATOM     23  C   UNL     1      19.617  42.774  48.782  0.00  0.00    +0.000 A 
ATOM     24  F   UNL     1      20.112  42.998  45.176  0.00  0.00    +0.000 F 
ATOM     25  C   UNL     1      18.419  43.911  46.521  0.00  0.00    +0.000 A 
ATOM     26  C   UNL     1      18.439  43.513  48.909  0.00  0.00    +0.000 A 
ATOM     27  C   UNL     1      17.848  44.065  47.777  0.00  0.00    +0.000 A 
ATOM     28  F   UNL     1      16.698  44.740  47.896  0.00  0.00    +0.000 F 
ENDBRANCH  18  21
ENDBRANCH   2  17
BRANCH   2  29
ATOM     29  C   UNL     1      24.908  41.772  47.930  0.00  0.00    +0.000 C 
ATOM     30  O   UNL     1      26.089  41.586  47.695  0.00  0.00    +0.000 OA
ATOM     31  OXT UNL     1      24.444  42.160  49.142  0.00  0.00    +0.000 OA
ENDBRANCH   2  29
TORSDOF 6
ENDMDL
MODEL 5
REMARK VINA RESULT:      -6.1      1.970      2.503
REMARK  Name = 320687
REMARK  6 active torsions:
REMARK  status: ('A' for Active; 'I' for Inactive)
REMARK    1  A    between atoms: C_3  and  O_5
REMARK    2  A    between atoms: O_5  and  C_8
REMARK    3  A    between atoms: C_14  and  C_15
REMARK    4  A    between atoms: CA_16  and  N_17
REMARK    5  A    between atoms: CA_16  and  C_18
REMARK    6  A    between atoms: C_19  and  C_23
REMARK                            x       y       z     vdW  Elec       q    Type
REMARK                         _______ _______ _______ _____ _____    ______ ____
ROOT
ATOM      1  C   UNL     1      19.153  42.978  45.670  0.00  0.00    +0.000 C 
ATOM      2  CA  UNL     1      17.979  42.510  45.217  0.00  0.00    +0.000 C 
ENDROOT
BRANCH   1   8
ATOM      3  C   UNL     1      22.422  41.055  47.567  0.00  0.00    +0.000 A 
ATOM      4  C   UNL     1      22.606  42.318  47.006  0.00  0.00    +0.000 A 
ATOM      5  C   UNL     1      21.265  40.326  47.278  0.00  0.00    +0.000 A 
ATOM      6  C   UNL     1      21.564  42.917  46.293  0.00  0.00    +0.000 A 
ATOM      7  C   UNL     1      20.217  40.932  46.580  0.00  0.00    +0.000 A 
ATOM      8  C   UNL     1      20.344  42.252  46.126  0.00  0.00    +0.000 A 
BRANCH   3   9
ATOM      9  O   UNL     1      23.394  40.590  48.429  0.00  0.00    +0.000 OA
BRANCH   9  12
ATOM     10 BR   UNL     1      23.804  42.747  50.602  0.00  0.00    +0.000 Br
ATOM     11  C   UNL     1      24.987  42.193  49.227  0.00  0.00    +0.000 A 
ATOM     12  C   UNL     1      24.654  41.162  48.341  0.00  0.00    +0.000 A 
ATOM     13  C   UNL     1      26.222  42.847  49.118  0.00  0.00    +0.000 A 
ATOM     14  C   UNL     1      25.614  40.732  47.411  0.00  0.00    +0.000 A 
ATOM     15  C   UNL     1      27.136  42.461  48.136  0.00  0.00    +0.000 A 
ATOM     16  C   UNL     1      26.838  41.395  47.292  0.00  0.00    +0.000 A 
ENDBRANCH   9  12
ENDBRANCH   3   9
ENDBRANCH   1   8
BRANCH   2  17
ATOM     17  N   UNL     1      17.654  41.199  44.919  0.00  0.00    +0.000 N 
ATOM     18  C   UNL     1      17.097  40.306  45.817  0.00  0.00    +0.000 C 
ATOM     19  O   UNL     1      16.823  40.571  46.982  0.00  0.00    +0.000 OA
ATOM     20  H   UNL     1      17.830  40.879  44.005  0.00  0.00    +0.000 HD
BRANCH  18  21
ATOM     21  C   UNL     1      16.963  38.893  45.380  0.00  0.00    +0.000 A 
ATOM     22  C   UNL     1      17.797  38.319  44.407  0.00  0.00    +0.000 A 
ATOM     23  C   UNL     1      16.033  38.077  46.036  0.00  0.00    +0.000 A 
ATOM     24  F   UNL     1      18.715  39.068  43.775  0.00  0.00    +0.000 F 
ATOM     25  C   UNL     1      17.726  36.965  44.104  0.00  0.00    +0.000 A 
ATOM     26  C   UNL     1      15.957  36.715  45.737  0.00  0.00    +0.000 A 
ATOM     27  C   UNL     1      16.810  36.172  44.782  0.00  0.00    +0.000 A 
ATOM     28  F   UNL     1      16.762  34.860  44.524  0.00  0.00    +0.000 F 
ENDBRANCH  18  21
ENDBRANCH   2  17
BRANCH   2  29
ATOM     29  C   UNL     1      16.890  43.533  45.048  0.00  0.00    +0.000 C 
ATOM     30  O   UNL     1      16.486  43.968  43.983  0.00  0.00    +0.000 OA
ATOM     31  OXT UNL     1      16.403  43.933  46.247  0.00  0.00    +0.000 OA
ENDBRANCH   2  29
TORSDOF 6
ENDMDL
MODEL 6
REMARK VINA RESULT:      -6.0      2.940      4.339
REMARK  Name = 320687
REMARK  6 active torsions:
REMARK  status: ('A' for Active; 'I' for Inactive)
REMARK    1  A    between atoms: C_3  and  O_5
REMARK    2  A    between atoms: O_5  and  C_8
REMARK    3  A    between atoms: C_14  and  C_15
REMARK    4  A    between atoms: CA_16  and  N_17
REMARK    5  A    between atoms: CA_16  and  C_18
REMARK    6  A    between atoms: C_19  and  C_23
REMARK                            x       y       z     vdW  Elec       q    Type
REMARK                         _______ _______ _______ _____ _____    ______ ____
ROOT
ATOM      1  C   UNL     1      21.017  38.766  44.229  0.00  0.00    +0.000 C 
ATOM      2  CA  UNL     1      19.828  39.368  44.395  0.00  0.00    +0.000 C 
ENDROOT
BRANCH   1   8
ATOM      3  C   UNL     1      24.590  40.225  45.987  0.00  0.00    +0.000 A 
ATOM      4  C   UNL     1      23.967  40.973  44.990  0.00  0.00    +0.000 A 
ATOM      5  C   UNL     1      24.198  38.902  46.215  0.00  0.00    +0.000 A 
ATOM      6  C   UNL     1      22.845  40.455  44.336  0.00  0.00    +0.000 A 
ATOM      7  C   UNL     1      23.067  38.392  45.573  0.00  0.00    +0.000 A 
ATOM      8  C   UNL     1      22.355  39.187  44.665  0.00  0.00    +0.000 A 
BRANCH   3   9
ATOM      9  O   UNL     1      25.560  40.850  46.744  0.00  0.00    +0.000 OA
BRANCH   9  12
ATOM     10 BR   UNL     1      27.923  41.463  48.638  0.00  0.00    +0.000 Br
ATOM     11  C   UNL     1      26.085  41.883  48.843  0.00  0.00    +0.000 A 
ATOM     12  C   UNL     1      25.143  41.562  47.858  0.00  0.00    +0.000 A 
ATOM     13  C   UNL     1      25.685  42.534  50.017  0.00  0.00    +0.000 A 
ATOM     14  C   UNL     1      23.816  41.991  48.025  0.00  0.00    +0.000 A 
ATOM     15  C   UNL     1      24.347  42.884  50.205  0.00  0.00    +0.000 A 
ATOM     16  C   UNL     1      23.415  42.625  49.204  0.00  0.00    +0.000 A 
ENDBRANCH   9  12
ENDBRANCH   3   9
ENDBRANCH   1   8
BRANCH   2  17
ATOM     17  N   UNL     1      19.547  40.479  45.169  0.00  0.00    +0.000 N 
ATOM     18  C   UNL     1      18.646  40.495  46.219  0.00  0.00    +0.000 C 
ATOM     19  O   UNL     1      17.993  39.525  46.589  0.00  0.00    +0.000 OA
ATOM     20  H   UNL     1      20.021  41.316  44.960  0.00  0.00    +0.000 HD
BRANCH  18  21
ATOM     21  C   UNL     1      18.344  41.810  46.839  0.00  0.00    +0.000 A 
ATOM     22  C   UNL     1      19.256  42.486  47.665  0.00  0.00    +0.000 A 
ATOM     23  C   UNL     1      17.140  42.443  46.505  0.00  0.00    +0.000 A 
ATOM     24  F   UNL     1      20.429  41.917  47.986  0.00  0.00    +0.000 F 
ATOM     25  C   UNL     1      18.992  43.767  48.134  0.00  0.00    +0.000 A 
ATOM     26  C   UNL     1      16.869  43.731  46.972  0.00  0.00    +0.000 A 
ATOM     27  C   UNL     1      17.801  44.382  47.773  0.00  0.00    +0.000 A 
ATOM     28  F   UNL     1      17.557  45.631  48.188  0.00  0.00    +0.000 F 
ENDBRANCH  18  21
ENDBRANCH   2  17
BRANCH   2  29
ATOM     29  C   UNL     1      18.683  38.774  43.622  0.00  0.00    +0.000 C 
ATOM     30  O   UNL     1      18.355  37.601  43.632  0.00  0.00    +0.000 OA
ATOM     31  OXT UNL     1      18.048  39.718  42.886  0.00  0.00    +0.000 OA
ENDBRANCH   2  29
TORSDOF 6
ENDMDL
MODEL 7
REMARK VINA RESULT:      -6.0      3.456      7.300
REMARK  Name = 320687
REMARK  6 active torsions:
REMARK  status: ('A' for Active; 'I' for Inactive)
REMARK    1  A    between atoms: C_3  and  O_5
REMARK    2  A    between atoms: O_5  and  C_8
REMARK    3  A    between atoms: C_14  and  C_15
REMARK    4  A    between atoms: CA_16  and  N_17
REMARK    5  A    between atoms: CA_16  and  C_18
REMARK    6  A    between atoms: C_19  and  C_23
REMARK                            x       y       z     vdW  Elec       q    Type
REMARK                         _______ _______ _______ _____ _____    ______ ____
ROOT
ATOM      1  C   UNL     1      24.276  40.724  46.252  0.00  0.00    +0.000 C 
ATOM      2  CA  UNL     1      23.979  41.551  47.268  0.00  0.00    +0.000 C 
ENDROOT
BRANCH   1   8
ATOM      3  C   UNL     1      21.315  39.409  43.517  0.00  0.00    +0.000 A 
ATOM      4  C   UNL     1      21.829  38.510  44.449  0.00  0.00    +0.000 A 
ATOM      5  C   UNL     1      21.950  40.638  43.310  0.00  0.00    +0.000 A 
ATOM      6  C   UNL     1      22.874  38.905  45.289  0.00  0.00    +0.000 A 
ATOM      7  C   UNL     1      22.982  41.039  44.161  0.00  0.00    +0.000 A 
ATOM      8  C   UNL     1      23.417  40.191  45.189  0.00  0.00    +0.000 A 
BRANCH   3   9
ATOM      9  O   UNL     1      20.159  39.052  42.854  0.00  0.00    +0.000 OA
BRANCH   9  12
ATOM     10 BR   UNL     1      18.090  37.330  44.369  0.00  0.00    +0.000 Br
ATOM     11  C   UNL     1      17.949  39.128  43.781  0.00  0.00    +0.000 A 
ATOM     12  C   UNL     1      19.010  39.775  43.136  0.00  0.00    +0.000 A 
ATOM     13  C   UNL     1      16.745  39.804  44.012  0.00  0.00    +0.000 A 
ATOM     14  C   UNL     1      18.878  41.136  42.816  0.00  0.00    +0.000 A 
ATOM     15  C   UNL     1      16.601  41.136  43.617  0.00  0.00    +0.000 A 
ATOM     16  C   UNL     1      17.671  41.806  43.032  0.00  0.00    +0.000 A 
ENDBRANCH   9  12
ENDBRANCH   3   9
ENDBRANCH   1   8
BRANCH   2  17
ATOM     17  N   UNL     1      22.797  42.240  47.474  0.00  0.00    +0.000 N 
ATOM     18  C   UNL     1      21.548  41.648  47.545  0.00  0.00    +0.000 C 
ATOM     19  O   UNL     1      21.341  40.445  47.436  0.00  0.00    +0.000 OA
ATOM     20  H   UNL     1      22.847  43.217  47.578  0.00  0.00    +0.000 HD
BRANCH  18  21
ATOM     21  C   UNL     1      20.369  42.550  47.606  0.00  0.00    +0.000 A 
ATOM     22  C   UNL     1      19.801  43.133  46.462  0.00  0.00    +0.000 A 
ATOM     23  C   UNL     1      19.743  42.745  48.844  0.00  0.00    +0.000 A 
ATOM     24  F   UNL     1      20.364  42.947  45.256  0.00  0.00    +0.000 F 
ATOM     25  C   UNL     1      18.630  43.876  46.536  0.00  0.00    +0.000 A 
ATOM     26  C   UNL     1      18.564  43.490  48.926  0.00  0.00    +0.000 A 
ATOM     27  C   UNL     1      18.016  44.039  47.771  0.00  0.00    +0.000 A 
ATOM     28  F   UNL     1      16.867  44.721  47.846  0.00  0.00    +0.000 F 
ENDBRANCH  18  21
ENDBRANCH   2  17
BRANCH   2  29
ATOM     29  C   UNL     1      25.049  41.716  48.311  0.00  0.00    +0.000 C 
ATOM     30  O   UNL     1      26.215  41.384  48.187  0.00  0.00    +0.000 OA
ATOM     31  OXT UNL     1      24.553  42.282  49.437  0.00  0.00    +0.000 OA
ENDBRANCH   2  29
TORSDOF 6
ENDMDL
