MODEL 1
REMARK VINA RESULT:       0.0      0.000      0.000
REMARK  Name = 324516
REMARK  8 active torsions:
REMARK  status: ('A' for Active; 'I' for Inactive)
REMARK    1  A    between atoms: C_3  and  O_5
REMARK    2  A    between atoms: O_5  and  C_8
REMARK    3  A    between atoms: C_14  and  C_15
REMARK    4  A    between atoms: C_16  and  N_17
REMARK    5  A    between atoms: C_16  and  C_18
REMARK    6  A    between atoms: C_19  and  C_23
REMARK    7  A    between atoms: N_21  and  C_24
REMARK    8  A    between atoms: C_27  and  C_31
REMARK                            x       y       z     vdW  Elec       q    Type
REMARK                         _______ _______ _______ _____ _____    ______ ____
ROOT
ATOM      1  C   UNL     1      22.772  40.405  44.764  0.00  0.00    +0.000 C 
ATOM      2  C   UNL     1      22.222  40.883  45.894  0.00  0.00    +0.000 C 
ENDROOT
BRANCH   1   8
ATOM      3  C   UNL     1      26.521  41.755  43.279  0.00  0.00    +0.000 A 
ATOM      4  C   UNL     1      25.413  41.713  42.431  0.00  0.00    +0.000 A 
ATOM      5  C   UNL     1      26.461  41.122  44.524  0.00  0.00    +0.000 A 
ATOM      6  C   UNL     1      24.203  41.167  42.882  0.00  0.00    +0.000 A 
ATOM      7  C   UNL     1      25.247  40.593  44.982  0.00  0.00    +0.000 A 
ATOM      8  C   UNL     1      24.099  40.657  44.182  0.00  0.00    +0.000 A 
BRANCH   3   9
ATOM      9  O   UNL     1      27.636  42.437  42.837  0.00  0.00    +0.000 OA
BRANCH   9  12
ATOM     10 BR   UNL     1      27.945  45.322  43.909  0.00  0.00    +0.000 Br
ATOM     11  C   UNL     1      27.558  44.734  42.147  0.00  0.00    +0.000 A 
ATOM     12  C   UNL     1      27.480  43.373  41.825  0.00  0.00    +0.000 A 
ATOM     13  C   UNL     1      27.354  45.709  41.162  0.00  0.00    +0.000 A 
ATOM     14  C   UNL     1      27.289  43.008  40.484  0.00  0.00    +0.000 A 
ATOM     15  C   UNL     1      27.091  45.331  39.845  0.00  0.00    +0.000 A 
ATOM     16  C   UNL     1      27.073  43.981  39.504  0.00  0.00    +0.000 A 
ENDBRANCH   9  12
ENDBRANCH   3   9
ENDBRANCH   1   8
BRANCH   2  17
ATOM     17  N   UNL     1      22.923  41.636  46.822  0.00  0.00    +0.000 N 
ATOM     18  C   UNL     1      23.536  41.018  47.900  0.00  0.00    +0.000 C 
ATOM     19  O   UNL     1      23.598  39.801  48.043  0.00  0.00    +0.000 OA
ATOM     20  H   UNL     1      22.987  42.613  46.715  0.00  0.00    +0.000 HD
BRANCH  18  21
ATOM     21  C   UNL     1      24.173  41.915  48.897  0.00  0.00    +0.000 A 
ATOM     22  C   UNL     1      23.447  42.314  50.026  0.00  0.00    +0.000 A 
ATOM     23  C   UNL     1      25.532  42.246  48.785  0.00  0.00    +0.000 A 
ATOM     24  C   UNL     1      24.081  43.021  51.051  0.00  0.00    +0.000 A 
ATOM     25  C   UNL     1      26.160  42.938  49.821  0.00  0.00    +0.000 A 
ATOM     26  C   UNL     1      25.441  43.317  50.955  0.00  0.00    +0.000 A 
ENDBRANCH  18  21
ENDBRANCH   2  17
BRANCH   2  27
ATOM     27  C   UNL     1      20.787  40.454  46.185  0.00  0.00    +0.000 C 
ATOM     28  O   UNL     1      20.346  40.443  47.331  0.00  0.00    +0.000 OA
ATOM     29  N   UNL     1      20.050  40.065  45.075  0.00  0.00    +0.000 N 
ATOM     30  H   UNL     1      20.472  40.097  44.186  0.00  0.00    +0.000 HD
BRANCH  29  31
ATOM     31  C   UNL     1      18.700  39.621  45.182  0.00  0.00    +0.000 A 
ATOM     32  C   UNL     1      17.593  40.460  45.449  0.00  0.00    +0.000 A 
ATOM     33  C   UNL     1      18.472  38.253  44.968  0.00  0.00    +0.000 A 
ATOM     34  C   UNL     1      16.302  39.904  45.546  0.00  0.00    +0.000 A 
ATOM     35  C   UNL     1      17.186  37.714  45.073  0.00  0.00    +0.000 A 
ATOM     36  C   UNL     1      16.103  38.536  45.368  0.00  0.00    +0.000 A 
BRANCH  32  37
ATOM     37  C   UNL     1      17.643  41.948  45.502  0.00  0.00    +0.000 C 
ATOM     38  O   UNL     1      16.863  42.621  46.162  0.00  0.00    +0.000 OA
ATOM     39  O   UNL     1      18.488  42.482  44.595  0.00  0.00    +0.000 OA
ENDBRANCH  32  37
ENDBRANCH  29  31
ENDBRANCH   2  27
TORSDOF 8
ENDMDL
MODEL 2
REMARK VINA RESULT:       0.1      1.007      1.444
REMARK  Name = 324516
REMARK  8 active torsions:
REMARK  status: ('A' for Active; 'I' for Inactive)
REMARK    1  A    between atoms: C_3  and  O_5
REMARK    2  A    between atoms: O_5  and  C_8
REMARK    3  A    between atoms: C_14  and  C_15
REMARK    4  A    between atoms: C_16  and  N_17
REMARK    5  A    between atoms: C_16  and  C_18
REMARK    6  A    between atoms: C_19  and  C_23
REMARK    7  A    between atoms: N_21  and  C_24
REMARK    8  A    between atoms: C_27  and  C_31
REMARK                            x       y       z     vdW  Elec       q    Type
REMARK                         _______ _______ _______ _____ _____    ______ ____
ROOT
ATOM      1  C   UNL     1      22.580  40.554  44.929  0.00  0.00    +0.000 C 
ATOM      2  C   UNL     1      22.099  41.073  46.073  0.00  0.00    +0.000 C 
ENDROOT
BRANCH   1   8
ATOM      3  C   UNL     1      26.328  41.659  43.253  0.00  0.00    +0.000 A 
ATOM      4  C   UNL     1      25.207  41.541  42.429  0.00  0.00    +0.000 A 
ATOM      5  C   UNL     1      26.277  41.173  44.561  0.00  0.00    +0.000 A 
ATOM      6  C   UNL     1      23.995  41.073  42.955  0.00  0.00    +0.000 A 
ATOM      7  C   UNL     1      25.061  40.721  45.093  0.00  0.00    +0.000 A 
ATOM      8  C   UNL     1      23.902  40.715  44.305  0.00  0.00    +0.000 A 
BRANCH   3   9
ATOM      9  O   UNL     1      27.448  42.267  42.721  0.00  0.00    +0.000 OA
BRANCH   9  12
ATOM     10 BR   UNL     1      27.184  43.729  40.008  0.00  0.00    +0.000 Br
ATOM     11  C   UNL     1      27.527  44.451  41.730  0.00  0.00    +0.000 A 
ATOM     12  C   UNL     1      27.588  43.639  42.870  0.00  0.00    +0.000 A 
ATOM     13  C   UNL     1      27.715  45.836  41.833  0.00  0.00    +0.000 A 
ATOM     14  C   UNL     1      27.746  44.250  44.124  0.00  0.00    +0.000 A 
ATOM     15  C   UNL     1      27.945  46.420  43.079  0.00  0.00    +0.000 A 
ATOM     16  C   UNL     1      27.946  45.629  44.225  0.00  0.00    +0.000 A 
ENDBRANCH   9  12
ENDBRANCH   3   9
ENDBRANCH   1   8
BRANCH   2  17
ATOM     17  N   UNL     1      22.877  41.781  46.974  0.00  0.00    +0.000 N 
ATOM     18  C   UNL     1      23.517  41.121  48.010  0.00  0.00    +0.000 C 
ATOM     19  O   UNL     1      23.535  39.900  48.132  0.00  0.00    +0.000 OA
ATOM     20  H   UNL     1      22.976  42.756  46.877  0.00  0.00    +0.000 HD
BRANCH  18  21
ATOM     21  C   UNL     1      24.240  41.975  48.986  0.00  0.00    +0.000 A 
ATOM     22  C   UNL     1      23.587  42.393  50.151  0.00  0.00    +0.000 A 
ATOM     23  C   UNL     1      25.607  42.243  48.814  0.00  0.00    +0.000 A 
ATOM     24  C   UNL     1      24.299  43.057  51.153  0.00  0.00    +0.000 A 
ATOM     25  C   UNL     1      26.314  42.891  49.827  0.00  0.00    +0.000 A 
ATOM     26  C   UNL     1      25.666  43.291  50.997  0.00  0.00    +0.000 A 
ENDBRANCH  18  21
ENDBRANCH   2  17
BRANCH   2  27
ATOM     27  C   UNL     1      20.648  40.741  46.410  0.00  0.00    +0.000 C 
ATOM     28  O   UNL     1      20.184  40.974  47.523  0.00  0.00    +0.000 OA
ATOM     29  N   UNL     1      19.923  40.149  45.385  0.00  0.00    +0.000 N 
ATOM     30  H   UNL     1      20.363  39.990  44.519  0.00  0.00    +0.000 HD
BRANCH  29  31
ATOM     31  C   UNL     1      18.560  39.764  45.547  0.00  0.00    +0.000 A 
ATOM     32  C   UNL     1      17.497  40.655  45.821  0.00  0.00    +0.000 A 
ATOM     33  C   UNL     1      18.272  38.400  45.385  0.00  0.00    +0.000 A 
ATOM     34  C   UNL     1      16.188  40.155  45.975  0.00  0.00    +0.000 A 
ATOM     35  C   UNL     1      16.969  37.917  45.547  0.00  0.00    +0.000 A 
ATOM     36  C   UNL     1      15.930  38.792  45.848  0.00  0.00    +0.000 A 
BRANCH  32  37
ATOM     37  C   UNL     1      17.607  42.141  45.825  0.00  0.00    +0.000 C 
ATOM     38  O   UNL     1      17.069  42.850  46.663  0.00  0.00    +0.000 OA
ATOM     39  O   UNL     1      18.176  42.632  44.703  0.00  0.00    +0.000 OA
ENDBRANCH  32  37
ENDBRANCH  29  31
ENDBRANCH   2  27
TORSDOF 8
ENDMDL
MODEL 3
REMARK VINA RESULT:       0.6      1.662      2.254
REMARK  Name = 324516
REMARK  8 active torsions:
REMARK  status: ('A' for Active; 'I' for Inactive)
REMARK    1  A    between atoms: C_3  and  O_5
REMARK    2  A    between atoms: O_5  and  C_8
REMARK    3  A    between atoms: C_14  and  C_15
REMARK    4  A    between atoms: C_16  and  N_17
REMARK    5  A    between atoms: C_16  and  C_18
REMARK    6  A    between atoms: C_19  and  C_23
REMARK    7  A    between atoms: N_21  and  C_24
REMARK    8  A    between atoms: C_27  and  C_31
REMARK                            x       y       z     vdW  Elec       q    Type
REMARK                         _______ _______ _______ _____ _____    ______ ____
ROOT
ATOM      1  C   UNL     1      22.243  40.649  44.972  0.00  0.00    +0.000 C 
ATOM      2  C   UNL     1      21.804  41.210  46.113  0.00  0.00    +0.000 C 
ENDROOT
BRANCH   1   8
ATOM      3  C   UNL     1      26.060  41.473  43.288  0.00  0.00    +0.000 A 
ATOM      4  C   UNL     1      24.930  41.456  42.470  0.00  0.00    +0.000 A 
ATOM      5  C   UNL     1      25.976  40.975  44.591  0.00  0.00    +0.000 A 
ATOM      6  C   UNL     1      23.687  41.079  42.996  0.00  0.00    +0.000 A 
ATOM      7  C   UNL     1      24.731  40.615  45.123  0.00  0.00    +0.000 A 
ATOM      8  C   UNL     1      23.571  40.712  44.343  0.00  0.00    +0.000 A 
BRANCH   3   9
ATOM      9  O   UNL     1      27.223  41.996  42.759  0.00  0.00    +0.000 OA
BRANCH   9  12
ATOM     10 BR   UNL     1      26.949  43.389  40.011  0.00  0.00    +0.000 Br
ATOM     11  C   UNL     1      27.383  44.143  41.697  0.00  0.00    +0.000 A 
ATOM     12  C   UNL     1      27.438  43.362  42.860  0.00  0.00    +0.000 A 
ATOM     13  C   UNL     1      27.647  45.518  41.752  0.00  0.00    +0.000 A 
ATOM     14  C   UNL     1      27.668  44.001  44.089  0.00  0.00    +0.000 A 
ATOM     15  C   UNL     1      27.946  46.126  42.971  0.00  0.00    +0.000 A 
ATOM     16  C   UNL     1      27.942  45.370  44.141  0.00  0.00    +0.000 A 
ENDBRANCH   9  12
ENDBRANCH   3   9
ENDBRANCH   1   8
BRANCH   2  17
ATOM     17  N   UNL     1      22.633  41.869  47.005  0.00  0.00    +0.000 N 
ATOM     18  C   UNL     1      23.265  41.165  48.018  0.00  0.00    +0.000 C 
ATOM     19  O   UNL     1      23.230  39.943  48.124  0.00  0.00    +0.000 OA
ATOM     20  H   UNL     1      22.775  42.840  46.920  0.00  0.00    +0.000 HD
BRANCH  18  21
ATOM     21  C   UNL     1      24.047  41.971  48.989  0.00  0.00    +0.000 A 
ATOM     22  C   UNL     1      23.436  42.411  50.168  0.00  0.00    +0.000 A 
ATOM     23  C   UNL     1      25.423  42.171  48.796  0.00  0.00    +0.000 A 
ATOM     24  C   UNL     1      24.199  43.028  51.164  0.00  0.00    +0.000 A 
ATOM     25  C   UNL     1      26.180  42.772  49.802  0.00  0.00    +0.000 A 
ATOM     26  C   UNL     1      25.573  43.192  50.987  0.00  0.00    +0.000 A 
ENDBRANCH  18  21
ENDBRANCH   2  17
BRANCH   2  27
ATOM     27  C   UNL     1      20.335  40.983  46.457  0.00  0.00    +0.000 C 
ATOM     28  O   UNL     1      19.759  41.686  47.284  0.00  0.00    +0.000 OA
ATOM     29  N   UNL     1      19.727  39.929  45.791  0.00  0.00    +0.000 N 
ATOM     30  H   UNL     1      20.253  39.406  45.142  0.00  0.00    +0.000 HD
BRANCH  29  31
ATOM     31  C   UNL     1      18.364  39.578  46.014  0.00  0.00    +0.000 A 
ATOM     32  C   UNL     1      17.643  38.621  45.262  0.00  0.00    +0.000 A 
ATOM     33  C   UNL     1      17.720  40.216  47.085  0.00  0.00    +0.000 A 
ATOM     34  C   UNL     1      16.290  38.367  45.567  0.00  0.00    +0.000 A 
ATOM     35  C   UNL     1      16.376  39.959  47.372  0.00  0.00    +0.000 A 
ATOM     36  C   UNL     1      15.659  39.041  46.611  0.00  0.00    +0.000 A 
BRANCH  32  37
ATOM     37  C   UNL     1      18.235  37.723  44.231  0.00  0.00    +0.000 C 
ATOM     38  O   UNL     1      17.893  36.559  44.082  0.00  0.00    +0.000 OA
ATOM     39  O   UNL     1      19.321  38.252  43.629  0.00  0.00    +0.000 OA
ENDBRANCH  32  37
ENDBRANCH  29  31
ENDBRANCH   2  27
TORSDOF 8
ENDMDL
MODEL 4
REMARK VINA RESULT:       1.7      4.039      8.762
REMARK  Name = 324516
REMARK  8 active torsions:
REMARK  status: ('A' for Active; 'I' for Inactive)
REMARK    1  A    between atoms: C_3  and  O_5
REMARK    2  A    between atoms: O_5  and  C_8
REMARK    3  A    between atoms: C_14  and  C_15
REMARK    4  A    between atoms: C_16  and  N_17
REMARK    5  A    between atoms: C_16  and  C_18
REMARK    6  A    between atoms: C_19  and  C_23
REMARK    7  A    between atoms: N_21  and  C_24
REMARK    8  A    between atoms: C_27  and  C_31
REMARK                            x       y       z     vdW  Elec       q    Type
REMARK                         _______ _______ _______ _____ _____    ______ ____
ROOT
ATOM      1  C   UNL     1      23.075  40.675  45.140  0.00  0.00    +0.000 C 
ATOM      2  C   UNL     1      23.050  41.629  46.089  0.00  0.00    +0.000 C 
ENDROOT
BRANCH   1   8
ATOM      3  C   UNL     1      19.550  39.197  43.277  0.00  0.00    +0.000 A 
ATOM      4  C   UNL     1      20.476  38.303  43.819  0.00  0.00    +0.000 A 
ATOM      5  C   UNL     1      19.899  40.541  43.121  0.00  0.00    +0.000 A 
ATOM      6  C   UNL     1      21.689  38.777  44.336  0.00  0.00    +0.000 A 
ATOM      7  C   UNL     1      21.103  41.018  43.655  0.00  0.00    +0.000 A 
ATOM      8  C   UNL     1      21.984  40.145  44.309  0.00  0.00    +0.000 A 
BRANCH   3   9
ATOM      9  O   UNL     1      18.313  38.696  42.922  0.00  0.00    +0.000 OA
BRANCH   9  12
ATOM     10 BR   UNL     1      16.693  41.039  44.128  0.00  0.00    +0.000 Br
ATOM     11  C   UNL     1      16.679  39.202  44.605  0.00  0.00    +0.000 A 
ATOM     12  C   UNL     1      17.465  38.259  43.928  0.00  0.00    +0.000 A 
ATOM     13  C   UNL     1      15.848  38.806  45.662  0.00  0.00    +0.000 A 
ATOM     14  C   UNL     1      17.331  36.904  44.267  0.00  0.00    +0.000 A 
ATOM     15  C   UNL     1      15.781  37.464  46.035  0.00  0.00    +0.000 A 
ATOM     16  C   UNL     1      16.512  36.512  45.329  0.00  0.00    +0.000 A 
ENDBRANCH   9  12
ENDBRANCH   3   9
ENDBRANCH   1   8
BRANCH   2  17
ATOM     17  N   UNL     1      21.937  42.411  46.352  0.00  0.00    +0.000 N 
ATOM     18  C   UNL     1      20.816  41.849  46.942  0.00  0.00    +0.000 C 
ATOM     19  O   UNL     1      20.771  40.697  47.361  0.00  0.00    +0.000 OA
ATOM     20  H   UNL     1      21.943  43.368  46.120  0.00  0.00    +0.000 HD
BRANCH  18  21
ATOM     21  C   UNL     1      19.636  42.738  47.088  0.00  0.00    +0.000 A 
ATOM     22  C   UNL     1      18.868  43.053  45.961  0.00  0.00    +0.000 A 
ATOM     23  C   UNL     1      19.210  43.145  48.362  0.00  0.00    +0.000 A 
ATOM     24  C   UNL     1      17.666  43.751  46.106  0.00  0.00    +0.000 A 
ATOM     25  C   UNL     1      18.000  43.826  48.499  0.00  0.00    +0.000 A 
ATOM     26  C   UNL     1      17.225  44.122  47.376  0.00  0.00    +0.000 A 
ENDBRANCH  18  21
ENDBRANCH   2  17
BRANCH   2  27
ATOM     27  C   UNL     1      24.368  41.908  46.805  0.00  0.00    +0.000 C 
ATOM     28  O   UNL     1      25.344  42.337  46.196  0.00  0.00    +0.000 OA
ATOM     29  N   UNL     1      24.376  41.620  48.162  0.00  0.00    +0.000 N 
ATOM     30  H   UNL     1      23.555  41.275  48.582  0.00  0.00    +0.000 HD
BRANCH  29  31
ATOM     31  C   UNL     1      25.536  41.810  48.969  0.00  0.00    +0.000 A 
ATOM     32  C   UNL     1      25.568  42.551  50.174  0.00  0.00    +0.000 A 
ATOM     33  C   UNL     1      26.711  41.179  48.534  0.00  0.00    +0.000 A 
ATOM     34  C   UNL     1      26.780  42.682  50.881  0.00  0.00    +0.000 A 
ATOM     35  C   UNL     1      27.908  41.324  49.242  0.00  0.00    +0.000 A 
ATOM     36  C   UNL     1      27.945  42.079  50.411  0.00  0.00    +0.000 A 
BRANCH  32  37
ATOM     37  C   UNL     1      24.373  43.108  50.866  0.00  0.00    +0.000 C 
ATOM     38  O   UNL     1      24.288  43.206  52.081  0.00  0.00    +0.000 OA
ATOM     39  O   UNL     1      23.322  43.295  50.039  0.00  0.00    +0.000 OA
ENDBRANCH  32  37
ENDBRANCH  29  31
ENDBRANCH   2  27
TORSDOF 8
ENDMDL
MODEL 5
REMARK VINA RESULT:       2.1      4.117      8.678
REMARK  Name = 324516
REMARK  8 active torsions:
REMARK  status: ('A' for Active; 'I' for Inactive)
REMARK    1  A    between atoms: C_3  and  O_5
REMARK    2  A    between atoms: O_5  and  C_8
REMARK    3  A    between atoms: C_14  and  C_15
REMARK    4  A    between atoms: C_16  and  N_17
REMARK    5  A    between atoms: C_16  and  C_18
REMARK    6  A    between atoms: C_19  and  C_23
REMARK    7  A    between atoms: N_21  and  C_24
REMARK    8  A    between atoms: C_27  and  C_31
REMARK                            x       y       z     vdW  Elec       q    Type
REMARK                         _______ _______ _______ _____ _____    ______ ____
ROOT
ATOM      1  C   UNL     1      21.779  42.242  45.678  0.00  0.00    +0.000 C 
ATOM      2  C   UNL     1      21.602  41.229  46.545  0.00  0.00    +0.000 C 
ENDROOT
BRANCH   1   8
ATOM      3  C   UNL     1      19.204  42.841  42.348  0.00  0.00    +0.000 A 
ATOM      4  C   UNL     1      20.022  41.711  42.398  0.00  0.00    +0.000 A 
ATOM      5  C   UNL     1      19.414  43.885  43.251  0.00  0.00    +0.000 A 
ATOM      6  C   UNL     1      20.951  41.562  43.437  0.00  0.00    +0.000 A 
ATOM      7  C   UNL     1      20.329  43.730  44.301  0.00  0.00    +0.000 A 
ATOM      8  C   UNL     1      21.068  42.546  44.427  0.00  0.00    +0.000 A 
BRANCH   3   9
ATOM      9  O   UNL     1      18.207  42.864  41.393  0.00  0.00    +0.000 OA
BRANCH   9  12
ATOM     10 BR   UNL     1      16.644  42.655  38.732  0.00  0.00    +0.000 Br
ATOM     11  C   UNL     1      16.366  41.721  40.361  0.00  0.00    +0.000 A 
ATOM     12  C   UNL     1      17.194  41.919  41.474  0.00  0.00    +0.000 A 
ATOM     13  C   UNL     1      15.300  40.814  40.422  0.00  0.00    +0.000 A 
ATOM     14  C   UNL     1      16.993  41.124  42.613  0.00  0.00    +0.000 A 
ATOM     15  C   UNL     1      15.067  40.084  41.587  0.00  0.00    +0.000 A 
ATOM     16  C   UNL     1      15.922  40.229  42.676  0.00  0.00    +0.000 A 
ENDBRANCH   9  12
ENDBRANCH   3   9
ENDBRANCH   1   8
BRANCH   2  17
ATOM     17  N   UNL     1      20.555  40.325  46.456  0.00  0.00    +0.000 N 
ATOM     18  C   UNL     1      19.244  40.770  46.517  0.00  0.00    +0.000 C 
ATOM     19  O   UNL     1      18.927  41.955  46.538  0.00  0.00    +0.000 OA
ATOM     20  H   UNL     1      20.743  39.365  46.348  0.00  0.00    +0.000 HD
BRANCH  18  21
ATOM     21  C   UNL     1      18.194  39.721  46.520  0.00  0.00    +0.000 A 
ATOM     22  C   UNL     1      17.102  39.843  47.388  0.00  0.00    +0.000 A 
ATOM     23  C   UNL     1      18.220  38.691  45.568  0.00  0.00    +0.000 A 
ATOM     24  C   UNL     1      16.028  38.955  47.289  0.00  0.00    +0.000 A 
ATOM     25  C   UNL     1      17.136  37.820  45.465  0.00  0.00    +0.000 A 
ATOM     26  C   UNL     1      16.038  37.955  46.317  0.00  0.00    +0.000 A 
ENDBRANCH  18  21
ENDBRANCH   2  17
BRANCH   2  27
ATOM     27  C   UNL     1      22.555  41.181  47.736  0.00  0.00    +0.000 C 
ATOM     28  O   UNL     1      22.788  40.127  48.322  0.00  0.00    +0.000 OA
ATOM     29  N   UNL     1      23.105  42.401  48.102  0.00  0.00    +0.000 N 
ATOM     30  H   UNL     1      22.870  43.205  47.586  0.00  0.00    +0.000 HD
BRANCH  29  31
ATOM     31  C   UNL     1      24.001  42.526  49.204  0.00  0.00    +0.000 A 
ATOM     32  C   UNL     1      25.409  42.420  49.115  0.00  0.00    +0.000 A 
ATOM     33  C   UNL     1      23.424  42.809  50.451  0.00  0.00    +0.000 A 
ATOM     34  C   UNL     1      26.194  42.548  50.279  0.00  0.00    +0.000 A 
ATOM     35  C   UNL     1      24.215  42.927  51.598  0.00  0.00    +0.000 A 
ATOM     36  C   UNL     1      25.597  42.791  51.514  0.00  0.00    +0.000 A 
BRANCH  32  37
ATOM     37  C   UNL     1      26.179  42.322  47.844  0.00  0.00    +0.000 C 
ATOM     38  O   UNL     1      26.759  43.271  47.338  0.00  0.00    +0.000 OA
ATOM     39  O   UNL     1      25.999  41.146  47.205  0.00  0.00    +0.000 OA
ENDBRANCH  32  37
ENDBRANCH  29  31
ENDBRANCH   2  27
TORSDOF 8
ENDMDL
