MODEL 1
REMARK VINA RESULT:      -8.1      0.000      0.000
REMARK  Name = 320687
REMARK  6 active torsions:
REMARK  status: ('A' for Active; 'I' for Inactive)
REMARK    1  A    between atoms: C_3  and  O_5
REMARK    2  A    between atoms: O_5  and  C_8
REMARK    3  A    between atoms: C_14  and  C_15
REMARK    4  A    between atoms: CA_16  and  N_17
REMARK    5  A    between atoms: CA_16  and  C_18
REMARK    6  A    between atoms: C_19  and  C_23
REMARK                            x       y       z     vdW  Elec       q    Type
REMARK                         _______ _______ _______ _____ _____    ______ ____
ROOT
ATOM      1  C   UNL     1      20.206  42.541  43.431  0.00  0.00    +0.000 C 
ATOM      2  CA  UNL     1      19.053  41.964  43.055  0.00  0.00    +0.000 C 
ENDROOT
BRANCH   1   8
ATOM      3  C   UNL     1      22.416  41.233  46.802  0.00  0.00    +0.000 A 
ATOM      4  C   UNL     1      22.044  42.574  46.711  0.00  0.00    +0.000 A 
ATOM      5  C   UNL     1      22.297  40.397  45.689  0.00  0.00    +0.000 A 
ATOM      6  C   UNL     1      21.401  43.035  45.558  0.00  0.00    +0.000 A 
ATOM      7  C   UNL     1      21.641  40.855  44.543  0.00  0.00    +0.000 A 
ATOM      8  C   UNL     1      21.147  42.165  44.493  0.00  0.00    +0.000 A 
BRANCH   3   9
ATOM      9  O   UNL     1      22.856  40.777  48.027  0.00  0.00    +0.000 OA
BRANCH   9  12
ATOM     10 BR   UNL     1      25.642  40.539  46.721  0.00  0.00    +0.000 Br
ATOM     11  C   UNL     1      25.122  41.520  48.260  0.00  0.00    +0.000 A 
ATOM     12  C   UNL     1      23.793  41.548  48.698  0.00  0.00    +0.000 A 
ATOM     13  C   UNL     1      26.110  42.223  48.958  0.00  0.00    +0.000 A 
ATOM     14  C   UNL     1      23.455  42.371  49.786  0.00  0.00    +0.000 A 
ATOM     15  C   UNL     1      25.774  42.973  50.087  0.00  0.00    +0.000 A 
ATOM     16  C   UNL     1      24.444  43.058  50.491  0.00  0.00    +0.000 A 
ENDBRANCH   9  12
ENDBRANCH   3   9
ENDBRANCH   1   8
BRANCH   2  17
ATOM     17  N   UNL     1      18.536  40.751  43.476  0.00  0.00    +0.000 N 
ATOM     18  C   UNL     1      17.928  40.540  44.700  0.00  0.00    +0.000 C 
ATOM     19  O   UNL     1      17.754  41.407  45.551  0.00  0.00    +0.000 OA
ATOM     20  H   UNL     1      18.607  39.985  42.861  0.00  0.00    +0.000 HD
BRANCH  18  21
ATOM     21  C   UNL     1      17.609  39.134  45.067  0.00  0.00    +0.000 A 
ATOM     22  C   UNL     1      16.632  38.806  46.012  0.00  0.00    +0.000 A 
ATOM     23  C   UNL     1      18.238  38.102  44.356  0.00  0.00    +0.000 A 
ATOM     24  F   UNL     1      15.991  39.768  46.694  0.00  0.00    +0.000 F 
ATOM     25  C   UNL     1      16.271  37.482  46.244  0.00  0.00    +0.000 A 
ATOM     26  C   UNL     1      17.880  36.772  44.582  0.00  0.00    +0.000 A 
ATOM     27  C   UNL     1      16.892  36.477  45.516  0.00  0.00    +0.000 A 
ATOM     28  F   UNL     1      16.522  35.205  45.704  0.00  0.00    +0.000 F 
ENDBRANCH  18  21
ENDBRANCH   2  17
BRANCH   2  29
ATOM     29  C   UNL     1      18.219  42.756  42.087  0.00  0.00    +0.000 C 
ATOM     30  O   UNL     1      18.416  43.913  41.764  0.00  0.00    +0.000 OA
ATOM     31  OXT UNL     1      17.195  42.012  41.606  0.00  0.00    +0.000 OA
ENDBRANCH   2  29
TORSDOF 6
ENDMDL
MODEL 2
REMARK VINA RESULT:      -7.2      3.797      7.956
REMARK  Name = 320687
REMARK  6 active torsions:
REMARK  status: ('A' for Active; 'I' for Inactive)
REMARK    1  A    between atoms: C_3  and  O_5
REMARK    2  A    between atoms: O_5  and  C_8
REMARK    3  A    between atoms: C_14  and  C_15
REMARK    4  A    between atoms: CA_16  and  N_17
REMARK    5  A    between atoms: CA_16  and  C_18
REMARK    6  A    between atoms: C_19  and  C_23
REMARK                            x       y       z     vdW  Elec       q    Type
REMARK                         _______ _______ _______ _____ _____    ______ ____
ROOT
ATOM      1  C   UNL     1      23.021  38.863  44.495  0.00  0.00    +0.000 C 
ATOM      2  CA  UNL     1      23.700  38.859  45.652  0.00  0.00    +0.000 C 
ENDROOT
BRANCH   1   8
ATOM      3  C   UNL     1      19.769  41.454  43.679  0.00  0.00    +0.000 A 
ATOM      4  C   UNL     1      19.701  40.126  43.261  0.00  0.00    +0.000 A 
ATOM      5  C   UNL     1      20.983  41.989  44.116  0.00  0.00    +0.000 A 
ATOM      6  C   UNL     1      20.807  39.289  43.439  0.00  0.00    +0.000 A 
ATOM      7  C   UNL     1      22.083  41.148  44.307  0.00  0.00    +0.000 A 
ATOM      8  C   UNL     1      21.983  39.783  44.013  0.00  0.00    +0.000 A 
BRANCH   3   9
ATOM      9  O   UNL     1      18.597  42.183  43.676  0.00  0.00    +0.000 OA
BRANCH   9  12
ATOM     10 BR   UNL     1      16.701  39.880  44.466  0.00  0.00    +0.000 Br
ATOM     11  C   UNL     1      17.065  41.498  45.386  0.00  0.00    +0.000 A 
ATOM     12  C   UNL     1      17.993  42.427  44.900  0.00  0.00    +0.000 A 
ATOM     13  C   UNL     1      16.377  41.748  46.579  0.00  0.00    +0.000 A 
ATOM     14  C   UNL     1      18.290  43.559  45.677  0.00  0.00    +0.000 A 
ATOM     15  C   UNL     1      16.624  42.917  47.301  0.00  0.00    +0.000 A 
ATOM     16  C   UNL     1      17.590  43.815  46.857  0.00  0.00    +0.000 A 
ENDBRANCH   9  12
ENDBRANCH   3   9
ENDBRANCH   1   8
BRANCH   2  17
ATOM     17  N   UNL     1      23.710  39.836  46.632  0.00  0.00    +0.000 N 
ATOM     18  C   UNL     1      24.710  40.777  46.791  0.00  0.00    +0.000 C 
ATOM     19  O   UNL     1      25.698  40.874  46.070  0.00  0.00    +0.000 OA
ATOM     20  H   UNL     1      22.952  39.861  47.260  0.00  0.00    +0.000 HD
BRANCH  18  21
ATOM     21  C   UNL     1      24.658  41.624  48.013  0.00  0.00    +0.000 A 
ATOM     22  C   UNL     1      23.461  41.929  48.667  0.00  0.00    +0.000 A 
ATOM     23  C   UNL     1      25.870  42.039  48.586  0.00  0.00    +0.000 A 
ATOM     24  F   UNL     1      22.285  41.527  48.162  0.00  0.00    +0.000 F 
ATOM     25  C   UNL     1      23.457  42.621  49.875  0.00  0.00    +0.000 A 
ATOM     26  C   UNL     1      25.873  42.732  49.798  0.00  0.00    +0.000 A 
ATOM     27  C   UNL     1      24.667  43.006  50.435  0.00  0.00    +0.000 A 
ATOM     28  F   UNL     1      24.674  43.636  51.615  0.00  0.00    +0.000 F 
ENDBRANCH  18  21
ENDBRANCH   2  17
BRANCH   2  29
ATOM     29  C   UNL     1      24.518  37.625  45.917  0.00  0.00    +0.000 C 
ATOM     30  O   UNL     1      25.575  37.348  45.380  0.00  0.00    +0.000 OA
ATOM     31  OXT UNL     1      23.924  36.838  46.845  0.00  0.00    +0.000 OA
ENDBRANCH   2  29
TORSDOF 6
ENDMDL
MODEL 3
REMARK VINA RESULT:      -6.8      3.601      8.270
REMARK  Name = 320687
REMARK  6 active torsions:
REMARK  status: ('A' for Active; 'I' for Inactive)
REMARK    1  A    between atoms: C_3  and  O_5
REMARK    2  A    between atoms: O_5  and  C_8
REMARK    3  A    between atoms: C_14  and  C_15
REMARK    4  A    between atoms: CA_16  and  N_17
REMARK    5  A    between atoms: CA_16  and  C_18
REMARK    6  A    between atoms: C_19  and  C_23
REMARK                            x       y       z     vdW  Elec       q    Type
REMARK                         _______ _______ _______ _____ _____    ______ ____
ROOT
ATOM      1  C   UNL     1      23.062  39.129  44.558  0.00  0.00    +0.000 C 
ATOM      2  CA  UNL     1      23.867  39.177  45.631  0.00  0.00    +0.000 C 
ENDROOT
BRANCH   1   8
ATOM      3  C   UNL     1      19.245  40.928  44.167  0.00  0.00    +0.000 A 
ATOM      4  C   UNL     1      19.615  39.921  43.278  0.00  0.00    +0.000 A 
ATOM      5  C   UNL     1      20.203  41.517  44.996  0.00  0.00    +0.000 A 
ATOM      6  C   UNL     1      20.908  39.389  43.337  0.00  0.00    +0.000 A 
ATOM      7  C   UNL     1      21.489  40.976  45.064  0.00  0.00    +0.000 A 
ATOM      8  C   UNL     1      21.832  39.877  44.267  0.00  0.00    +0.000 A 
BRANCH   3   9
ATOM      9  O   UNL     1      17.911  41.276  44.214  0.00  0.00    +0.000 OA
BRANCH   9  12
ATOM     10 BR   UNL     1      17.071  43.031  46.609  0.00  0.00    +0.000 Br
ATOM     11  C   UNL     1      16.661  41.213  46.257  0.00  0.00    +0.000 A 
ATOM     12  C   UNL     1      17.097  40.574  45.090  0.00  0.00    +0.000 A 
ATOM     13  C   UNL     1      15.902  40.513  47.203  0.00  0.00    +0.000 A 
ATOM     14  C   UNL     1      16.677  39.257  44.841  0.00  0.00    +0.000 A 
ATOM     15  C   UNL     1      15.561  39.178  46.980  0.00  0.00    +0.000 A 
ATOM     16  C   UNL     1      15.936  38.555  45.793  0.00  0.00    +0.000 A 
ENDBRANCH   9  12
ENDBRANCH   3   9
ENDBRANCH   1   8
BRANCH   2  17
ATOM     17  N   UNL     1      23.828  40.078  46.680  0.00  0.00    +0.000 N 
ATOM     18  C   UNL     1      24.741  41.098  46.873  0.00  0.00    +0.000 C 
ATOM     19  O   UNL     1      25.683  41.340  46.125  0.00  0.00    +0.000 OA
ATOM     20  H   UNL     1      23.098  39.986  47.335  0.00  0.00    +0.000 HD
BRANCH  18  21
ATOM     21  C   UNL     1      24.664  41.848  48.155  0.00  0.00    +0.000 A 
ATOM     22  C   UNL     1      23.454  42.090  48.814  0.00  0.00    +0.000 A 
ATOM     23  C   UNL     1      25.862  42.228  48.777  0.00  0.00    +0.000 A 
ATOM     24  F   UNL     1      22.289  41.717  48.261  0.00  0.00    +0.000 F 
ATOM     25  C   UNL     1      23.426  42.686  50.071  0.00  0.00    +0.000 A 
ATOM     26  C   UNL     1      25.841  42.825  50.038  0.00  0.00    +0.000 A 
ATOM     27  C   UNL     1      24.624  43.037  50.677  0.00  0.00    +0.000 A 
ATOM     28  F   UNL     1      24.608  43.574  51.902  0.00  0.00    +0.000 F 
ENDBRANCH  18  21
ENDBRANCH   2  17
BRANCH   2  29
ATOM     29  C   UNL     1      24.909  38.096  45.705  0.00  0.00    +0.000 C 
ATOM     30  O   UNL     1      26.077  38.215  45.381  0.00  0.00    +0.000 OA
ATOM     31  OXT UNL     1      24.382  36.944  46.184  0.00  0.00    +0.000 OA
ENDBRANCH   2  29
TORSDOF 6
ENDMDL
MODEL 4
REMARK VINA RESULT:      -6.1      3.991      7.880
REMARK  Name = 320687
REMARK  6 active torsions:
REMARK  status: ('A' for Active; 'I' for Inactive)
REMARK    1  A    between atoms: C_3  and  O_5
REMARK    2  A    between atoms: O_5  and  C_8
REMARK    3  A    between atoms: C_14  and  C_15
REMARK    4  A    between atoms: CA_16  and  N_17
REMARK    5  A    between atoms: CA_16  and  C_18
REMARK    6  A    between atoms: C_19  and  C_23
REMARK                            x       y       z     vdW  Elec       q    Type
REMARK                         _______ _______ _______ _____ _____    ______ ____
ROOT
ATOM      1  C   UNL     1      22.907  38.535  44.522  0.00  0.00    +0.000 C 
ATOM      2  CA  UNL     1      23.603  38.565  45.668  0.00  0.00    +0.000 C 
ENDROOT
BRANCH   1   8
ATOM      3  C   UNL     1      19.925  41.423  43.670  0.00  0.00    +0.000 A 
ATOM      4  C   UNL     1      19.546  40.192  44.202  0.00  0.00    +0.000 A 
ATOM      5  C   UNL     1      21.220  41.604  43.179  0.00  0.00    +0.000 A 
ATOM      6  C   UNL     1      20.510  39.197  44.395  0.00  0.00    +0.000 A 
ATOM      7  C   UNL     1      22.186  40.616  43.386  0.00  0.00    +0.000 A 
ATOM      8  C   UNL     1      21.843  39.425  44.039  0.00  0.00    +0.000 A 
BRANCH   3   9
ATOM      9  O   UNL     1      18.991  42.438  43.689  0.00  0.00    +0.000 OA
BRANCH   9  12
ATOM     10 BR   UNL     1      21.089  43.396  45.740  0.00  0.00    +0.000 Br
ATOM     11  C   UNL     1      19.221  43.152  45.965  0.00  0.00    +0.000 A 
ATOM     12  C   UNL     1      18.402  42.742  44.907  0.00  0.00    +0.000 A 
ATOM     13  C   UNL     1      18.672  43.392  47.230  0.00  0.00    +0.000 A 
ATOM     14  C   UNL     1      17.013  42.674  45.112  0.00  0.00    +0.000 A 
ATOM     15  C   UNL     1      17.300  43.242  47.440  0.00  0.00    +0.000 A 
ATOM     16  C   UNL     1      16.470  42.897  46.378  0.00  0.00    +0.000 A 
ENDBRANCH   9  12
ENDBRANCH   3   9
ENDBRANCH   1   8
BRANCH   2  17
ATOM     17  N   UNL     1      23.608  39.559  46.631  0.00  0.00    +0.000 N 
ATOM     18  C   UNL     1      24.600  40.512  46.770  0.00  0.00    +0.000 C 
ATOM     19  O   UNL     1      25.585  40.604  46.044  0.00  0.00    +0.000 OA
ATOM     20  H   UNL     1      22.851  39.590  47.260  0.00  0.00    +0.000 HD
BRANCH  18  21
ATOM     21  C   UNL     1      24.545  41.380  47.977  0.00  0.00    +0.000 A 
ATOM     22  C   UNL     1      25.689  41.928  48.564  0.00  0.00    +0.000 A 
ATOM     23  C   UNL     1      23.285  41.747  48.475  0.00  0.00    +0.000 A 
ATOM     24  F   UNL     1      26.910  41.620  48.098  0.00  0.00    +0.000 F 
ATOM     25  C   UNL     1      25.596  42.833  49.616  0.00  0.00    +0.000 A 
ATOM     26  C   UNL     1      23.184  42.656  49.529  0.00  0.00    +0.000 A 
ATOM     27  C   UNL     1      24.340  43.198  50.082  0.00  0.00    +0.000 A 
ATOM     28  F   UNL     1      24.239  44.098  51.066  0.00  0.00    +0.000 F 
ENDBRANCH  18  21
ENDBRANCH   2  17
BRANCH   2  29
ATOM     29  C   UNL     1      24.450  37.354  45.942  0.00  0.00    +0.000 C 
ATOM     30  O   UNL     1      24.132  36.411  46.645  0.00  0.00    +0.000 OA
ATOM     31  OXT UNL     1      25.640  37.438  45.303  0.00  0.00    +0.000 OA
ENDBRANCH   2  29
TORSDOF 6
ENDMDL
MODEL 5
REMARK VINA RESULT:      -5.9      2.935      4.322
REMARK  Name = 320687
REMARK  6 active torsions:
REMARK  status: ('A' for Active; 'I' for Inactive)
REMARK    1  A    between atoms: C_3  and  O_5
REMARK    2  A    between atoms: O_5  and  C_8
REMARK    3  A    between atoms: C_14  and  C_15
REMARK    4  A    between atoms: CA_16  and  N_17
REMARK    5  A    between atoms: CA_16  and  C_18
REMARK    6  A    between atoms: C_19  and  C_23
REMARK                            x       y       z     vdW  Elec       q    Type
REMARK                         _______ _______ _______ _____ _____    ______ ____
ROOT
ATOM      1  C   UNL     1      20.955  38.826  44.222  0.00  0.00    +0.000 C 
ATOM      2  CA  UNL     1      19.770  39.434  44.388  0.00  0.00    +0.000 C 
ENDROOT
BRANCH   1   8
ATOM      3  C   UNL     1      24.546  40.201  46.003  0.00  0.00    +0.000 A 
ATOM      4  C   UNL     1      23.871  41.029  45.108  0.00  0.00    +0.000 A 
ATOM      5  C   UNL     1      24.197  38.852  46.107  0.00  0.00    +0.000 A 
ATOM      6  C   UNL     1      22.739  40.549  44.441  0.00  0.00    +0.000 A 
ATOM      7  C   UNL     1      23.058  38.377  45.452  0.00  0.00    +0.000 A 
ATOM      8  C   UNL     1      22.296  39.239  44.653  0.00  0.00    +0.000 A 
BRANCH   3   9
ATOM      9  O   UNL     1      25.524  40.776  46.788  0.00  0.00    +0.000 OA
BRANCH   9  12
ATOM     10 BR   UNL     1      27.903  41.478  48.623  0.00  0.00    +0.000 Br
ATOM     11  C   UNL     1      26.063  41.880  48.845  0.00  0.00    +0.000 A 
ATOM     12  C   UNL     1      25.110  41.515  47.886  0.00  0.00    +0.000 A 
ATOM     13  C   UNL     1      25.671  42.558  50.005  0.00  0.00    +0.000 A 
ATOM     14  C   UNL     1      23.779  41.926  48.062  0.00  0.00    +0.000 A 
ATOM     15  C   UNL     1      24.330  42.890  50.205  0.00  0.00    +0.000 A 
ATOM     16  C   UNL     1      23.387  42.587  49.227  0.00  0.00    +0.000 A 
ENDBRANCH   9  12
ENDBRANCH   3   9
ENDBRANCH   1   8
BRANCH   2  17
ATOM     17  N   UNL     1      19.489  40.544  45.166  0.00  0.00    +0.000 N 
ATOM     18  C   UNL     1      18.667  40.535  46.278  0.00  0.00    +0.000 C 
ATOM     19  O   UNL     1      18.105  39.538  46.721  0.00  0.00    +0.000 OA
ATOM     20  H   UNL     1      19.905  41.399  44.910  0.00  0.00    +0.000 HD
BRANCH  18  21
ATOM     21  C   UNL     1      18.319  41.851  46.878  0.00  0.00    +0.000 A 
ATOM     22  C   UNL     1      19.203  42.562  47.696  0.00  0.00    +0.000 A 
ATOM     23  C   UNL     1      17.101  42.446  46.517  0.00  0.00    +0.000 A 
ATOM     24  F   UNL     1      20.388  42.036  48.041  0.00  0.00    +0.000 F 
ATOM     25  C   UNL     1      18.897  43.845  48.141  0.00  0.00    +0.000 A 
ATOM     26  C   UNL     1      16.789  43.732  46.958  0.00  0.00    +0.000 A 
ATOM     27  C   UNL     1      17.695  44.423  47.757  0.00  0.00    +0.000 A 
ATOM     28  F   UNL     1      17.411  45.670  48.148  0.00  0.00    +0.000 F 
ENDBRANCH  18  21
ENDBRANCH   2  17
BRANCH   2  29
ATOM     29  C   UNL     1      18.628  38.850  43.605  0.00  0.00    +0.000 C 
ATOM     30  O   UNL     1      18.294  37.679  43.606  0.00  0.00    +0.000 OA
ATOM     31  OXT UNL     1      18.000  39.803  42.877  0.00  0.00    +0.000 OA
ENDBRANCH   2  29
TORSDOF 6
ENDMDL
