MODEL 1
REMARK VINA RESULT:      -2.0      0.000      0.000
REMARK  Name = 324010
REMARK  7 active torsions:
REMARK  status: ('A' for Active; 'I' for Inactive)
REMARK    1  A    between atoms: C_3  and  O_5
REMARK    2  A    between atoms: O_5  and  C_8
REMARK    3  A    between atoms: C_14  and  C_15
REMARK    4  A    between atoms: C_16  and  N_17
REMARK    5  A    between atoms: C_16  and  C_18
REMARK    6  A    between atoms: C_19  and  C_23
REMARK    7  A    between atoms: N_21  and  C_24
REMARK                            x       y       z     vdW  Elec       q    Type
REMARK                         _______ _______ _______ _____ _____    ______ ____
ROOT
ATOM      1  C   UNL     1      20.619  40.157  43.641  0.00  0.00    +0.000 C 
ATOM      2  C   UNL     1      19.481  40.852  43.822  0.00  0.00    +0.000 C 
ENDROOT
BRANCH   1   8
ATOM      3  C   UNL     1      23.903  40.182  46.315  0.00  0.00    +0.000 A 
ATOM      4  C   UNL     1      23.305  41.390  45.942  0.00  0.00    +0.000 A 
ATOM      5  C   UNL     1      23.607  39.015  45.602  0.00  0.00    +0.000 A 
ATOM      6  C   UNL     1      22.306  41.401  44.962  0.00  0.00    +0.000 A 
ATOM      7  C   UNL     1      22.593  39.023  44.638  0.00  0.00    +0.000 A 
ATOM      8  C   UNL     1      21.904  40.208  44.349  0.00  0.00    +0.000 A 
BRANCH   3   9
ATOM      9  O   UNL     1      24.757  40.204  47.398  0.00  0.00    +0.000 OA
BRANCH   9  12
ATOM     10 BR   UNL     1      27.466  41.477  48.170  0.00  0.00    +0.000 Br
ATOM     11  C   UNL     1      25.729  41.868  48.827  0.00  0.00    +0.000 A 
ATOM     12  C   UNL     1      24.592  41.208  48.338  0.00  0.00    +0.000 A 
ATOM     13  C   UNL     1      25.613  42.851  49.821  0.00  0.00    +0.000 A 
ATOM     14  C   UNL     1      23.329  41.620  48.790  0.00  0.00    +0.000 A 
ATOM     15  C   UNL     1      24.353  43.197  50.312  0.00  0.00    +0.000 A 
ATOM     16  C   UNL     1      23.212  42.592  49.789  0.00  0.00    +0.000 A 
ENDBRANCH   9  12
ENDBRANCH   3   9
ENDBRANCH   1   8
BRANCH   2  17
ATOM     17  N   UNL     1      19.273  41.714  44.887  0.00  0.00    +0.000 N 
ATOM     18  C   UNL     1      18.360  41.385  45.874  0.00  0.00    +0.000 C 
ATOM     19  O   UNL     1      17.779  40.306  45.937  0.00  0.00    +0.000 OA
ATOM     20  H   UNL     1      19.774  42.560  44.942  0.00  0.00    +0.000 HD
BRANCH  18  21
ATOM     21  C   UNL     1      18.098  42.412  46.915  0.00  0.00    +0.000 A 
ATOM     22  C   UNL     1      19.030  42.584  47.946  0.00  0.00    +0.000 A 
ATOM     23  C   UNL     1      17.024  43.299  46.787  0.00  0.00    +0.000 A 
ATOM     24  C   UNL     1      18.904  43.658  48.829  0.00  0.00    +0.000 A 
ATOM     25  C   UNL     1      16.912  44.381  47.665  0.00  0.00    +0.000 A 
ATOM     26  C   UNL     1      17.857  44.566  48.676  0.00  0.00    +0.000 A 
ENDBRANCH  18  21
ENDBRANCH   2  17
BRANCH   2  27
ATOM     27  C   UNL     1      18.367  40.534  42.824  0.00  0.00    +0.000 C 
ATOM     28  O   UNL     1      17.935  39.383  42.754  0.00  0.00    +0.000 OA
ATOM     29  N   UNL     1      17.923  41.594  42.057  0.00  0.00    +0.000 N 
ATOM     30  H   UNL     1      18.371  42.460  42.192  0.00  0.00    +0.000 HD
BRANCH  29  31
ATOM     31  C   UNL     1      16.880  41.554  41.094  0.00  0.00    +0.000 A 
ATOM     32  C   UNL     1      15.596  41.060  41.354  0.00  0.00    +0.000 A 
ATOM     33  C   UNL     1      17.150  42.039  39.807  0.00  0.00    +0.000 A 
ATOM     34  C   UNL     1      14.618  41.019  40.350  0.00  0.00    +0.000 A 
ATOM     35  C   UNL     1      16.174  41.991  38.800  0.00  0.00    +0.000 A 
ATOM     36  C   UNL     1      14.908  41.476  39.070  0.00  0.00    +0.000 A 
ENDBRANCH  29  31
ENDBRANCH   2  27
TORSDOF 7
ENDMDL
MODEL 2
REMARK VINA RESULT:      -1.9      2.117      3.148
REMARK  Name = 324010
REMARK  7 active torsions:
REMARK  status: ('A' for Active; 'I' for Inactive)
REMARK    1  A    between atoms: C_3  and  O_5
REMARK    2  A    between atoms: O_5  and  C_8
REMARK    3  A    between atoms: C_14  and  C_15
REMARK    4  A    between atoms: C_16  and  N_17
REMARK    5  A    between atoms: C_16  and  C_18
REMARK    6  A    between atoms: C_19  and  C_23
REMARK    7  A    between atoms: N_21  and  C_24
REMARK                            x       y       z     vdW  Elec       q    Type
REMARK                         _______ _______ _______ _____ _____    ______ ____
ROOT
ATOM      1  C   UNL     1      20.461  42.154  43.767  0.00  0.00    +0.000 C 
ATOM      2  C   UNL     1      19.181  41.738  43.744  0.00  0.00    +0.000 C 
ENDROOT
BRANCH   1   8
ATOM      3  C   UNL     1      23.034  41.058  46.947  0.00  0.00    +0.000 A 
ATOM      4  C   UNL     1      22.406  42.307  46.965  0.00  0.00    +0.000 A 
ATOM      5  C   UNL     1      23.037  40.302  45.771  0.00  0.00    +0.000 A 
ATOM      6  C   UNL     1      21.659  42.729  45.859  0.00  0.00    +0.000 A 
ATOM      7  C   UNL     1      22.272  40.713  44.674  0.00  0.00    +0.000 A 
ATOM      8  C   UNL     1      21.540  41.905  44.732  0.00  0.00    +0.000 A 
BRANCH   3   9
ATOM      9  O   UNL     1      23.614  40.623  48.121  0.00  0.00    +0.000 OA
BRANCH   9  12
ATOM     10 BR   UNL     1      26.550  41.218  47.358  0.00  0.00    +0.000 Br
ATOM     11  C   UNL     1      25.514  41.932  48.779  0.00  0.00    +0.000 A 
ATOM     12  C   UNL     1      24.171  41.571  48.963  0.00  0.00    +0.000 A 
ATOM     13  C   UNL     1      26.135  42.844  49.645  0.00  0.00    +0.000 A 
ATOM     14  C   UNL     1      23.434  42.216  49.968  0.00  0.00    +0.000 A 
ATOM     15  C   UNL     1      25.405  43.422  50.685  0.00  0.00    +0.000 A 
ATOM     16  C   UNL     1      24.053  43.119  50.839  0.00  0.00    +0.000 A 
ENDBRANCH   9  12
ENDBRANCH   3   9
ENDBRANCH   1   8
BRANCH   2  17
ATOM     17  N   UNL     1      18.661  40.817  44.640  0.00  0.00    +0.000 N 
ATOM     18  C   UNL     1      18.520  39.492  44.265  0.00  0.00    +0.000 C 
ATOM     19  O   UNL     1      18.933  39.033  43.205  0.00  0.00    +0.000 OA
ATOM     20  H   UNL     1      18.391  41.105  45.542  0.00  0.00    +0.000 HD
BRANCH  18  21
ATOM     21  C   UNL     1      17.840  38.591  45.230  0.00  0.00    +0.000 A 
ATOM     22  C   UNL     1      17.160  39.152  46.319  0.00  0.00    +0.000 A 
ATOM     23  C   UNL     1      17.744  37.218  44.977  0.00  0.00    +0.000 A 
ATOM     24  C   UNL     1      16.363  38.347  47.134  0.00  0.00    +0.000 A 
ATOM     25  C   UNL     1      16.932  36.420  45.788  0.00  0.00    +0.000 A 
ATOM     26  C   UNL     1      16.234  36.986  46.856  0.00  0.00    +0.000 A 
ENDBRANCH  18  21
ENDBRANCH   2  17
BRANCH   2  27
ATOM     27  C   UNL     1      18.353  42.267  42.573  0.00  0.00    +0.000 C 
ATOM     28  O   UNL     1      18.519  43.429  42.199  0.00  0.00    +0.000 OA
ATOM     29  N   UNL     1      17.460  41.375  42.013  0.00  0.00    +0.000 N 
ATOM     30  H   UNL     1      17.406  40.482  42.423  0.00  0.00    +0.000 HD
BRANCH  29  31
ATOM     31  C   UNL     1      16.612  41.622  40.900  0.00  0.00    +0.000 A 
ATOM     32  C   UNL     1      16.990  42.384  39.786  0.00  0.00    +0.000 A 
ATOM     33  C   UNL     1      15.324  41.074  40.915  0.00  0.00    +0.000 A 
ATOM     34  C   UNL     1      16.096  42.618  38.732  0.00  0.00    +0.000 A 
ATOM     35  C   UNL     1      14.426  41.314  39.864  0.00  0.00    +0.000 A 
ATOM     36  C   UNL     1      14.810  42.091  38.774  0.00  0.00    +0.000 A 
ENDBRANCH  29  31
ENDBRANCH   2  27
TORSDOF 7
ENDMDL
MODEL 3
REMARK VINA RESULT:      -0.6      3.322      8.583
REMARK  Name = 324010
REMARK  7 active torsions:
REMARK  status: ('A' for Active; 'I' for Inactive)
REMARK    1  A    between atoms: C_3  and  O_5
REMARK    2  A    between atoms: O_5  and  C_8
REMARK    3  A    between atoms: C_14  and  C_15
REMARK    4  A    between atoms: C_16  and  N_17
REMARK    5  A    between atoms: C_16  and  C_18
REMARK    6  A    between atoms: C_19  and  C_23
REMARK    7  A    between atoms: N_21  and  C_24
REMARK                            x       y       z     vdW  Elec       q    Type
REMARK                         _______ _______ _______ _____ _____    ______ ____
ROOT
ATOM      1  C   UNL     1      23.008  41.046  45.667  0.00  0.00    +0.000 C 
ATOM      2  C   UNL     1      22.761  41.874  46.699  0.00  0.00    +0.000 C 
ENDROOT
BRANCH   1   8
ATOM      3  C   UNL     1      19.904  39.289  43.385  0.00  0.00    +0.000 A 
ATOM      4  C   UNL     1      20.869  38.474  43.982  0.00  0.00    +0.000 A 
ATOM      5  C   UNL     1      20.117  40.669  43.305  0.00  0.00    +0.000 A 
ATOM      6  C   UNL     1      21.969  39.051  44.628  0.00  0.00    +0.000 A 
ATOM      7  C   UNL     1      21.204  41.248  43.970  0.00  0.00    +0.000 A 
ATOM      8  C   UNL     1      22.108  40.444  44.676  0.00  0.00    +0.000 A 
BRANCH   3   9
ATOM      9  O   UNL     1      18.761  38.677  42.912  0.00  0.00    +0.000 OA
BRANCH   9  12
ATOM     10 BR   UNL     1      16.798  40.976  43.562  0.00  0.00    +0.000 Br
ATOM     11  C   UNL     1      16.856  39.215  44.267  0.00  0.00    +0.000 A 
ATOM     12  C   UNL     1      17.806  38.279  43.833  0.00  0.00    +0.000 A 
ATOM     13  C   UNL     1      15.907  38.870  45.241  0.00  0.00    +0.000 A 
ATOM     14  C   UNL     1      17.726  36.965  44.317  0.00  0.00    +0.000 A 
ATOM     15  C   UNL     1      15.888  37.577  45.766  0.00  0.00    +0.000 A 
ATOM     16  C   UNL     1      16.786  36.622  45.296  0.00  0.00    +0.000 A 
ENDBRANCH   9  12
ENDBRANCH   3   9
ENDBRANCH   1   8
BRANCH   2  17
ATOM     17  N   UNL     1      21.523  42.449  46.938  0.00  0.00    +0.000 N 
ATOM     18  C   UNL     1      20.431  41.647  47.222  0.00  0.00    +0.000 C 
ATOM     19  O   UNL     1      20.499  40.433  47.389  0.00  0.00    +0.000 OA
ATOM     20  H   UNL     1      21.420  43.428  46.906  0.00  0.00    +0.000 HD
BRANCH  18  21
ATOM     21  C   UNL     1      19.115  42.324  47.342  0.00  0.00    +0.000 A 
ATOM     22  C   UNL     1      19.079  43.679  47.697  0.00  0.00    +0.000 A 
ATOM     23  C   UNL     1      17.940  41.670  46.958  0.00  0.00    +0.000 A 
ATOM     24  C   UNL     1      17.876  44.384  47.639  0.00  0.00    +0.000 A 
ATOM     25  C   UNL     1      16.741  42.386  46.887  0.00  0.00    +0.000 A 
ATOM     26  C   UNL     1      16.713  43.742  47.215  0.00  0.00    +0.000 A 
ENDBRANCH  18  21
ENDBRANCH   2  17
BRANCH   2  27
ATOM     27  C   UNL     1      23.986  42.238  47.540  0.00  0.00    +0.000 C 
ATOM     28  O   UNL     1      25.051  42.479  46.972  0.00  0.00    +0.000 OA
ATOM     29  N   UNL     1      23.792  42.267  48.907  0.00  0.00    +0.000 N 
ATOM     30  H   UNL     1      22.896  42.028  49.235  0.00  0.00    +0.000 HD
BRANCH  29  31
ATOM     31  C   UNL     1      24.764  42.610  49.885  0.00  0.00    +0.000 A 
ATOM     32  C   UNL     1      26.146  42.568  49.660  0.00  0.00    +0.000 A 
ATOM     33  C   UNL     1      24.316  43.016  51.148  0.00  0.00    +0.000 A 
ATOM     34  C   UNL     1      27.056  42.889  50.676  0.00  0.00    +0.000 A 
ATOM     35  C   UNL     1      25.226  43.330  52.168  0.00  0.00    +0.000 A 
ATOM     36  C   UNL     1      26.598  43.263  51.934  0.00  0.00    +0.000 A 
ENDBRANCH  29  31
ENDBRANCH   2  27
TORSDOF 7
ENDMDL
