MODEL 1
REMARK VINA RESULT:      -7.9      0.000      0.000
REMARK  Name = 323416
REMARK  7 active torsions:
REMARK  status: ('A' for Active; 'I' for Inactive)
REMARK    1  A    between atoms: C_3  and  O_5
REMARK    2  A    between atoms: O_5  and  C_8
REMARK    3  A    between atoms: C_14  and  C_15
REMARK    4  A    between atoms: CA_16  and  N_17
REMARK    5  A    between atoms: CA_16  and  C_18
REMARK    6  A    between atoms: C_19  and  C_23
REMARK    7  A    between atoms: C_23  and  C_24
REMARK                            x       y       z     vdW  Elec       q    Type
REMARK                         _______ _______ _______ _____ _____    ______ ____
ROOT
ATOM      1  C   UNL     1      22.334  42.400  48.583  0.00  0.00    +0.000 C 
ATOM      2  CA  UNL     1      23.549  42.047  49.031  0.00  0.00    +0.000 C 
ENDROOT
BRANCH   1   8
ATOM      3  C   UNL     1      19.745  41.330  45.424  0.00  0.00    +0.000 A 
ATOM      4  C   UNL     1      20.243  40.332  46.261  0.00  0.00    +0.000 A 
ATOM      5  C   UNL     1      20.320  42.607  45.443  0.00  0.00    +0.000 A 
ATOM      6  C   UNL     1      21.197  40.651  47.234  0.00  0.00    +0.000 A 
ATOM      7  C   UNL     1      21.245  42.933  46.430  0.00  0.00    +0.000 A 
ATOM      8  C   UNL     1      21.646  41.970  47.364  0.00  0.00    +0.000 A 
BRANCH   3   9
ATOM      9  O   UNL     1      18.657  41.027  44.632  0.00  0.00    +0.000 OA
BRANCH   9  12
ATOM     10 BR   UNL     1      16.699  42.247  46.687  0.00  0.00    +0.000 Br
ATOM     11  C   UNL     1      16.829  40.457  46.077  0.00  0.00    +0.000 A 
ATOM     12  C   UNL     1      17.763  40.075  45.105  0.00  0.00    +0.000 A 
ATOM     13  C   UNL     1      15.951  39.510  46.624  0.00  0.00    +0.000 A 
ATOM     14  C   UNL     1      17.741  38.753  44.631  0.00  0.00    +0.000 A 
ATOM     15  C   UNL     1      15.992  38.183  46.195  0.00  0.00    +0.000 A 
ATOM     16  C   UNL     1      16.879  37.807  45.191  0.00  0.00    +0.000 A 
ENDBRANCH   9  12
ENDBRANCH   3   9
ENDBRANCH   1   8
BRANCH   2  17
ATOM     17  N   UNL     1      24.362  41.099  48.426  0.00  0.00    +0.000 N 
ATOM     18  C   UNL     1      25.379  41.487  47.566  0.00  0.00    +0.000 C 
ATOM     19  O   UNL     1      25.648  42.659  47.320  0.00  0.00    +0.000 OA
ATOM     20  H   UNL     1      24.216  40.142  48.610  0.00  0.00    +0.000 HD
BRANCH  18  21
ATOM     21  C   UNL     1      26.074  40.330  46.868  0.00  0.00    +0.000 C 
BRANCH  21  22
ATOM     22  C   UNL     1      25.245  39.772  45.717  0.00  0.00    +0.000 C 
ATOM     23  C   UNL     1      24.360  40.828  45.051  0.00  0.00    +0.000 C 
ATOM     24  C   UNL     1      24.217  38.723  46.129  0.00  0.00    +0.000 C 
ATOM     25  C   UNL     1      23.307  40.024  44.289  0.00  0.00    +0.000 C 
ATOM     26  C   UNL     1      23.307  38.628  44.911  0.00  0.00    +0.000 C 
ENDBRANCH  21  22
ENDBRANCH  18  21
ENDBRANCH   2  17
BRANCH   2  27
ATOM     27  C   UNL     1      24.066  42.830  50.198  0.00  0.00    +0.000 C 
ATOM     28  O   UNL     1      24.559  43.941  50.125  0.00  0.00    +0.000 OA
ATOM     29  OXT UNL     1      23.970  42.135  51.354  0.00  0.00    +0.000 OA
ENDBRANCH   2  27
TORSDOF 7
ENDMDL
MODEL 2
REMARK VINA RESULT:      -7.8      1.820      3.978
REMARK  Name = 323416
REMARK  7 active torsions:
REMARK  status: ('A' for Active; 'I' for Inactive)
REMARK    1  A    between atoms: C_3  and  O_5
REMARK    2  A    between atoms: O_5  and  C_8
REMARK    3  A    between atoms: C_14  and  C_15
REMARK    4  A    between atoms: CA_16  and  N_17
REMARK    5  A    between atoms: CA_16  and  C_18
REMARK    6  A    between atoms: C_19  and  C_23
REMARK    7  A    between atoms: C_23  and  C_24
REMARK                            x       y       z     vdW  Elec       q    Type
REMARK                         _______ _______ _______ _____ _____    ______ ____
ROOT
ATOM      1  C   UNL     1      23.129  40.001  44.399  0.00  0.00    +0.000 C 
ATOM      2  CA  UNL     1      23.831  40.367  45.482  0.00  0.00    +0.000 C 
ENDROOT
BRANCH   1   8
ATOM      3  C   UNL     1      19.050  40.950  43.862  0.00  0.00    +0.000 A 
ATOM      4  C   UNL     1      19.559  39.786  43.284  0.00  0.00    +0.000 A 
ATOM      5  C   UNL     1      19.927  41.926  44.350  0.00  0.00    +0.000 A 
ATOM      6  C   UNL     1      20.931  39.519  43.348  0.00  0.00    +0.000 A 
ATOM      7  C   UNL     1      21.288  41.648  44.441  0.00  0.00    +0.000 A 
ATOM      8  C   UNL     1      21.787  40.420  43.991  0.00  0.00    +0.000 A 
BRANCH   3   9
ATOM      9  O   UNL     1      17.680  41.071  43.972  0.00  0.00    +0.000 OA
BRANCH   9  12
ATOM     10 BR   UNL     1      16.887  42.760  46.434  0.00  0.00    +0.000 Br
ATOM     11  C   UNL     1      16.649  40.905  46.131  0.00  0.00    +0.000 A 
ATOM     12  C   UNL     1      17.041  40.297  44.931  0.00  0.00    +0.000 A 
ATOM     13  C   UNL     1      16.057  40.143  47.150  0.00  0.00    +0.000 A 
ATOM     14  C   UNL     1      16.750  38.937  44.737  0.00  0.00    +0.000 A 
ATOM     15  C   UNL     1      15.841  38.776  46.969  0.00  0.00    +0.000 A 
ATOM     16  C   UNL     1      16.177  38.176  45.759  0.00  0.00    +0.000 A 
ENDBRANCH   9  12
ENDBRANCH   3   9
ENDBRANCH   1   8
BRANCH   2  17
ATOM     17  N   UNL     1      23.415  41.322  46.399  0.00  0.00    +0.000 N 
ATOM     18  C   UNL     1      22.989  40.945  47.664  0.00  0.00    +0.000 C 
ATOM     19  O   UNL     1      22.988  39.783  48.062  0.00  0.00    +0.000 OA
ATOM     20  H   UNL     1      23.424  42.274  46.150  0.00  0.00    +0.000 HD
BRANCH  18  21
ATOM     21  C   UNL     1      22.422  42.087  48.491  0.00  0.00    +0.000 C 
BRANCH  21  22
ATOM     22  C   UNL     1      23.510  42.852  49.236  0.00  0.00    +0.000 C 
ATOM     23  C   UNL     1      24.923  42.468  48.789  0.00  0.00    +0.000 C 
ATOM     24  C   UNL     1      23.572  42.568  50.733  0.00  0.00    +0.000 C 
ATOM     25  C   UNL     1      25.830  42.951  49.921  0.00  0.00    +0.000 C 
ATOM     26  C   UNL     1      24.927  43.131  51.141  0.00  0.00    +0.000 C 
ENDBRANCH  21  22
ENDBRANCH  18  21
ENDBRANCH   2  17
BRANCH   2  27
ATOM     27  C   UNL     1      25.087  39.593  45.737  0.00  0.00    +0.000 C 
ATOM     28  O   UNL     1      26.183  40.090  45.923  0.00  0.00    +0.000 OA
ATOM     29  OXT UNL     1      24.876  38.257  45.686  0.00  0.00    +0.000 OA
ENDBRANCH   2  27
TORSDOF 7
ENDMDL
MODEL 3
REMARK VINA RESULT:      -7.7      1.311      2.031
REMARK  Name = 323416
REMARK  7 active torsions:
REMARK  status: ('A' for Active; 'I' for Inactive)
REMARK    1  A    between atoms: C_3  and  O_5
REMARK    2  A    between atoms: O_5  and  C_8
REMARK    3  A    between atoms: C_14  and  C_15
REMARK    4  A    between atoms: CA_16  and  N_17
REMARK    5  A    between atoms: CA_16  and  C_18
REMARK    6  A    between atoms: C_19  and  C_23
REMARK    7  A    between atoms: C_23  and  C_24
REMARK                            x       y       z     vdW  Elec       q    Type
REMARK                         _______ _______ _______ _____ _____    ______ ____
ROOT
ATOM      1  C   UNL     1      23.347  42.288  48.159  0.00  0.00    +0.000 C 
ATOM      2  CA  UNL     1      24.463  41.633  47.802  0.00  0.00    +0.000 C 
ENDROOT
BRANCH   1   8
ATOM      3  C   UNL     1      19.825  41.768  45.890  0.00  0.00    +0.000 A 
ATOM      4  C   UNL     1      20.775  42.696  45.465  0.00  0.00    +0.000 A 
ATOM      5  C   UNL     1      19.895  41.242  47.186  0.00  0.00    +0.000 A 
ATOM      6  C   UNL     1      21.889  42.970  46.268  0.00  0.00    +0.000 A 
ATOM      7  C   UNL     1      21.017  41.490  47.972  0.00  0.00    +0.000 A 
ATOM      8  C   UNL     1      22.044  42.311  47.492  0.00  0.00    +0.000 A 
BRANCH   3   9
ATOM      9  O   UNL     1      18.866  41.364  44.985  0.00  0.00    +0.000 OA
BRANCH   9  12
ATOM     10 BR   UNL     1      16.625  42.601  46.713  0.00  0.00    +0.000 Br
ATOM     11  C   UNL     1      16.895  40.790  46.225  0.00  0.00    +0.000 A 
ATOM     12  C   UNL     1      17.957  40.400  45.398  0.00  0.00    +0.000 A 
ATOM     13  C   UNL     1      15.992  39.835  46.715  0.00  0.00    +0.000 A 
ATOM     14  C   UNL     1      18.042  39.055  45.000  0.00  0.00    +0.000 A 
ATOM     15  C   UNL     1      16.135  38.491  46.369  0.00  0.00    +0.000 A 
ATOM     16  C   UNL     1      17.153  38.103  45.503  0.00  0.00    +0.000 A 
ENDBRANCH   9  12
ENDBRANCH   3   9
ENDBRANCH   1   8
BRANCH   2  17
ATOM     17  N   UNL     1      24.546  40.751  46.733  0.00  0.00    +0.000 N 
ATOM     18  C   UNL     1      23.985  39.485  46.820  0.00  0.00    +0.000 C 
ATOM     19  O   UNL     1      23.363  39.085  47.800  0.00  0.00    +0.000 OA
ATOM     20  H   UNL     1      25.005  41.026  45.907  0.00  0.00    +0.000 HD
BRANCH  18  21
ATOM     21  C   UNL     1      24.294  38.589  45.633  0.00  0.00    +0.000 C 
BRANCH  21  22
ATOM     22  C   UNL     1      23.429  38.922  44.422  0.00  0.00    +0.000 C 
ATOM     23  C   UNL     1      23.425  40.414  44.083  0.00  0.00    +0.000 C 
ATOM     24  C   UNL     1      21.941  38.644  44.612  0.00  0.00    +0.000 C 
ATOM     25  C   UNL     1      22.192  40.605  43.199  0.00  0.00    +0.000 C 
ATOM     26  C   UNL     1      21.295  39.394  43.455  0.00  0.00    +0.000 C 
ENDBRANCH  21  22
ENDBRANCH  18  21
ENDBRANCH   2  17
BRANCH   2  27
ATOM     27  C   UNL     1      25.700  41.988  48.566  0.00  0.00    +0.000 C 
ATOM     28  O   UNL     1      26.786  41.459  48.414  0.00  0.00    +0.000 OA
ATOM     29  OXT UNL     1      25.463  42.943  49.496  0.00  0.00    +0.000 OA
ENDBRANCH   2  27
TORSDOF 7
ENDMDL
MODEL 4
REMARK VINA RESULT:      -7.6      2.893      7.870
REMARK  Name = 323416
REMARK  7 active torsions:
REMARK  status: ('A' for Active; 'I' for Inactive)
REMARK    1  A    between atoms: C_3  and  O_5
REMARK    2  A    between atoms: O_5  and  C_8
REMARK    3  A    between atoms: C_14  and  C_15
REMARK    4  A    between atoms: CA_16  and  N_17
REMARK    5  A    between atoms: CA_16  and  C_18
REMARK    6  A    between atoms: C_19  and  C_23
REMARK    7  A    between atoms: C_23  and  C_24
REMARK                            x       y       z     vdW  Elec       q    Type
REMARK                         _______ _______ _______ _____ _____    ______ ____
ROOT
ATOM      1  C   UNL     1      19.939  41.836  43.568  0.00  0.00    +0.000 C 
ATOM      2  CA  UNL     1      18.668  41.407  43.586  0.00  0.00    +0.000 C 
ENDROOT
BRANCH   1   8
ATOM      3  C   UNL     1      22.416  41.046  46.895  0.00  0.00    +0.000 A 
ATOM      4  C   UNL     1      21.779  42.283  46.801  0.00  0.00    +0.000 A 
ATOM      5  C   UNL     1      22.474  40.205  45.776  0.00  0.00    +0.000 A 
ATOM      6  C   UNL     1      21.055  42.608  45.648  0.00  0.00    +0.000 A 
ATOM      7  C   UNL     1      21.728  40.514  44.642  0.00  0.00    +0.000 A 
ATOM      8  C   UNL     1      20.972  41.690  44.596  0.00  0.00    +0.000 A 
BRANCH   3   9
ATOM      9  O   UNL     1      22.930  40.675  48.120  0.00  0.00    +0.000 OA
BRANCH   9  12
ATOM     10 BR   UNL     1      25.652  40.546  46.665  0.00  0.00    +0.000 Br
ATOM     11  C   UNL     1      25.161  41.553  48.194  0.00  0.00    +0.000 A 
ATOM     12  C   UNL     1      23.858  41.521  48.711  0.00  0.00    +0.000 A 
ATOM     13  C   UNL     1      26.144  42.348  48.802  0.00  0.00    +0.000 A 
ATOM     14  C   UNL     1      23.540  42.363  49.788  0.00  0.00    +0.000 A 
ATOM     15  C   UNL     1      25.828  43.124  49.918  0.00  0.00    +0.000 A 
ATOM     16  C   UNL     1      24.524  43.140  50.404  0.00  0.00    +0.000 A 
ENDBRANCH   9  12
ENDBRANCH   3   9
ENDBRANCH   1   8
BRANCH   2  17
ATOM     17  N   UNL     1      18.116  40.635  44.599  0.00  0.00    +0.000 N 
ATOM     18  C   UNL     1      17.180  41.177  45.468  0.00  0.00    +0.000 C 
ATOM     19  O   UNL     1      16.758  42.326  45.378  0.00  0.00    +0.000 OA
ATOM     20  H   UNL     1      18.392  39.695  44.702  0.00  0.00    +0.000 HD
BRANCH  18  21
ATOM     21  C   UNL     1      16.791  40.255  46.611  0.00  0.00    +0.000 C 
BRANCH  21  22
ATOM     22  C   UNL     1      17.134  38.798  46.317  0.00  0.00    +0.000 C 
ATOM     23  C   UNL     1      17.962  38.626  45.041  0.00  0.00    +0.000 C 
ATOM     24  C   UNL     1      15.928  37.911  46.024  0.00  0.00    +0.000 C 
ATOM     25  C   UNL     1      17.798  37.152  44.672  0.00  0.00    +0.000 C 
ATOM     26  C   UNL     1      16.551  36.665  45.410  0.00  0.00    +0.000 C 
ENDBRANCH  21  22
ENDBRANCH  18  21
ENDBRANCH   2  17
BRANCH   2  27
ATOM     27  C   UNL     1      17.795  41.906  42.477  0.00  0.00    +0.000 C 
ATOM     28  O   UNL     1      16.864  41.287  41.994  0.00  0.00    +0.000 OA
ATOM     29  OXT UNL     1      18.193  43.118  42.028  0.00  0.00    +0.000 OA
ENDBRANCH   2  27
TORSDOF 7
ENDMDL
MODEL 5
REMARK VINA RESULT:      -7.4      2.195      4.289
REMARK  Name = 323416
REMARK  7 active torsions:
REMARK  status: ('A' for Active; 'I' for Inactive)
REMARK    1  A    between atoms: C_3  and  O_5
REMARK    2  A    between atoms: O_5  and  C_8
REMARK    3  A    between atoms: C_14  and  C_15
REMARK    4  A    between atoms: CA_16  and  N_17
REMARK    5  A    between atoms: CA_16  and  C_18
REMARK    6  A    between atoms: C_19  and  C_23
REMARK    7  A    between atoms: C_23  and  C_24
REMARK                            x       y       z     vdW  Elec       q    Type
REMARK                         _______ _______ _______ _____ _____    ______ ____
ROOT
ATOM      1  C   UNL     1      23.350  40.355  44.547  0.00  0.00    +0.000 C 
ATOM      2  CA  UNL     1      23.764  40.976  45.662  0.00  0.00    +0.000 C 
ENDROOT
BRANCH   1   8
ATOM      3  C   UNL     1      19.242  40.144  43.594  0.00  0.00    +0.000 A 
ATOM      4  C   UNL     1      20.013  38.983  43.536  0.00  0.00    +0.000 A 
ATOM      5  C   UNL     1      19.869  41.394  43.673  0.00  0.00    +0.000 A 
ATOM      6  C   UNL     1      21.397  39.056  43.728  0.00  0.00    +0.000 A 
ATOM      7  C   UNL     1      21.241  41.465  43.895  0.00  0.00    +0.000 A 
ATOM      8  C   UNL     1      22.002  40.293  43.979  0.00  0.00    +0.000 A 
BRANCH   3   9
ATOM      9  O   UNL     1      17.869  40.008  43.619  0.00  0.00    +0.000 OA
BRANCH   9  12
ATOM     10 BR   UNL     1      17.656  36.966  44.109  0.00  0.00    +0.000 Br
ATOM     11  C   UNL     1      17.064  38.397  45.202  0.00  0.00    +0.000 A 
ATOM     12  C   UNL     1      17.272  39.735  44.842  0.00  0.00    +0.000 A 
ATOM     13  C   UNL     1      16.407  38.081  46.401  0.00  0.00    +0.000 A 
ATOM     14  C   UNL     1      16.892  40.743  45.743  0.00  0.00    +0.000 A 
ATOM     15  C   UNL     1      15.970  39.097  47.251  0.00  0.00    +0.000 A 
ATOM     16  C   UNL     1      16.221  40.427  46.927  0.00  0.00    +0.000 A 
ENDBRANCH   9  12
ENDBRANCH   3   9
ENDBRANCH   1   8
BRANCH   2  17
ATOM     17  N   UNL     1      22.959  41.780  46.456  0.00  0.00    +0.000 N 
ATOM     18  C   UNL     1      22.203  41.227  47.480  0.00  0.00    +0.000 C 
ATOM     19  O   UNL     1      22.225  40.034  47.771  0.00  0.00    +0.000 OA
ATOM     20  H   UNL     1      22.924  42.750  46.293  0.00  0.00    +0.000 HD
BRANCH  18  21
ATOM     21  C   UNL     1      21.261  42.210  48.153  0.00  0.00    +0.000 C 
BRANCH  21  22
ATOM     22  C   UNL     1      19.969  42.400  47.365  0.00  0.00    +0.000 C 
ATOM     23  C   UNL     1      20.097  43.443  46.252  0.00  0.00    +0.000 C 
ATOM     24  C   UNL     1      18.807  42.958  48.180  0.00  0.00    +0.000 C 
ATOM     25  C   UNL     1      18.656  43.825  45.915  0.00  0.00    +0.000 C 
ATOM     26  C   UNL     1      17.811  43.395  47.114  0.00  0.00    +0.000 C 
ENDBRANCH  21  22
ENDBRANCH  18  21
ENDBRANCH   2  17
BRANCH   2  27
ATOM     27  C   UNL     1      25.163  40.668  46.097  0.00  0.00    +0.000 C 
ATOM     28  O   UNL     1      25.756  39.634  45.848  0.00  0.00    +0.000 OA
ATOM     29  OXT UNL     1      25.687  41.661  46.852  0.00  0.00    +0.000 OA
ENDBRANCH   2  27
TORSDOF 7
ENDMDL
MODEL 6
REMARK VINA RESULT:      -7.4      3.014      7.905
REMARK  Name = 323416
REMARK  7 active torsions:
REMARK  status: ('A' for Active; 'I' for Inactive)
REMARK    1  A    between atoms: C_3  and  O_5
REMARK    2  A    between atoms: O_5  and  C_8
REMARK    3  A    between atoms: C_14  and  C_15
REMARK    4  A    between atoms: CA_16  and  N_17
REMARK    5  A    between atoms: CA_16  and  C_18
REMARK    6  A    between atoms: C_19  and  C_23
REMARK    7  A    between atoms: C_23  and  C_24
REMARK                            x       y       z     vdW  Elec       q    Type
REMARK                         _______ _______ _______ _____ _____    ______ ____
ROOT
ATOM      1  C   UNL     1      20.122  41.630  43.394  0.00  0.00    +0.000 C 
ATOM      2  CA  UNL     1      18.788  41.706  43.516  0.00  0.00    +0.000 C 
ENDROOT
BRANCH   1   8
ATOM      3  C   UNL     1      22.485  40.872  46.810  0.00  0.00    +0.000 A 
ATOM      4  C   UNL     1      22.017  42.166  46.582  0.00  0.00    +0.000 A 
ATOM      5  C   UNL     1      22.427  39.919  45.786  0.00  0.00    +0.000 A 
ATOM      6  C   UNL     1      21.338  42.461  45.394  0.00  0.00    +0.000 A 
ATOM      7  C   UNL     1      21.725  40.202  44.618  0.00  0.00    +0.000 A 
ATOM      8  C   UNL     1      21.130  41.457  44.442  0.00  0.00    +0.000 A 
BRANCH   3   9
ATOM      9  O   UNL     1      22.951  40.567  48.073  0.00  0.00    +0.000 OA
BRANCH   9  12
ATOM     10 BR   UNL     1      25.677  40.497  46.622  0.00  0.00    +0.000 Br
ATOM     11  C   UNL     1      25.156  41.507  48.139  0.00  0.00    +0.000 A 
ATOM     12  C   UNL     1      23.854  41.444  48.655  0.00  0.00    +0.000 A 
ATOM     13  C   UNL     1      26.116  42.335  48.739  0.00  0.00    +0.000 A 
ATOM     14  C   UNL     1      23.511  42.290  49.722  0.00  0.00    +0.000 A 
ATOM     15  C   UNL     1      25.777  43.114  49.846  0.00  0.00    +0.000 A 
ATOM     16  C   UNL     1      24.473  43.100  50.331  0.00  0.00    +0.000 A 
ENDBRANCH   9  12
ENDBRANCH   3   9
ENDBRANCH   1   8
BRANCH   2  17
ATOM     17  N   UNL     1      18.099  41.537  44.708  0.00  0.00    +0.000 N 
ATOM     18  C   UNL     1      17.468  40.335  44.993  0.00  0.00    +0.000 C 
ATOM     19  O   UNL     1      17.508  39.356  44.253  0.00  0.00    +0.000 OA
ATOM     20  H   UNL     1      18.058  42.276  45.358  0.00  0.00    +0.000 HD
BRANCH  18  21
ATOM     21  C   UNL     1      16.630  40.361  46.260  0.00  0.00    +0.000 C 
BRANCH  21  22
ATOM     22  C   UNL     1      17.062  41.471  47.212  0.00  0.00    +0.000 C 
ATOM     23  C   UNL     1      16.807  42.872  46.649  0.00  0.00    +0.000 C 
ATOM     24  C   UNL     1      18.561  41.519  47.490  0.00  0.00    +0.000 C 
ATOM     25  C   UNL     1      17.700  43.791  47.484  0.00  0.00    +0.000 C 
ATOM     26  C   UNL     1      18.756  42.890  48.123  0.00  0.00    +0.000 C 
ENDBRANCH  21  22
ENDBRANCH  18  21
ENDBRANCH   2  17
BRANCH   2  27
ATOM     27  C   UNL     1      18.043  42.108  42.281  0.00  0.00    +0.000 C 
ATOM     28  O   UNL     1      17.159  41.453  41.760  0.00  0.00    +0.000 OA
ATOM     29  OXT UNL     1      18.504  43.273  41.770  0.00  0.00    +0.000 OA
ENDBRANCH   2  27
TORSDOF 7
ENDMDL
MODEL 7
REMARK VINA RESULT:      -7.1      3.087      7.623
REMARK  Name = 323416
REMARK  7 active torsions:
REMARK  status: ('A' for Active; 'I' for Inactive)
REMARK    1  A    between atoms: C_3  and  O_5
REMARK    2  A    between atoms: O_5  and  C_8
REMARK    3  A    between atoms: C_14  and  C_15
REMARK    4  A    between atoms: CA_16  and  N_17
REMARK    5  A    between atoms: CA_16  and  C_18
REMARK    6  A    between atoms: C_19  and  C_23
REMARK    7  A    between atoms: C_23  and  C_24
REMARK                            x       y       z     vdW  Elec       q    Type
REMARK                         _______ _______ _______ _____ _____    ______ ____
ROOT
ATOM      1  C   UNL     1      18.807  43.241  45.184  0.00  0.00    +0.000 C 
ATOM      2  CA  UNL     1      18.010  42.367  44.551  0.00  0.00    +0.000 C 
ENDROOT
BRANCH   1   8
ATOM      3  C   UNL     1      21.995  41.804  47.550  0.00  0.00    +0.000 A 
ATOM      4  C   UNL     1      20.713  41.860  48.099  0.00  0.00    +0.000 A 
ATOM      5  C   UNL     1      22.273  42.482  46.356  0.00  0.00    +0.000 A 
ATOM      6  C   UNL     1      19.671  42.447  47.373  0.00  0.00    +0.000 A 
ATOM      7  C   UNL     1      21.230  43.038  45.620  0.00  0.00    +0.000 A 
ATOM      8  C   UNL     1      19.917  42.974  46.100  0.00  0.00    +0.000 A 
BRANCH   3   9
ATOM      9  O   UNL     1      22.940  41.030  48.192  0.00  0.00    +0.000 OA
BRANCH   9  12
ATOM     10 BR   UNL     1      25.538  40.586  46.582  0.00  0.00    +0.000 Br
ATOM     11  C   UNL     1      25.281  41.551  48.192  0.00  0.00    +0.000 A 
ATOM     12  C   UNL     1      24.015  41.683  48.779  0.00  0.00    +0.000 A 
ATOM     13  C   UNL     1      26.403  42.144  48.790  0.00  0.00    +0.000 A 
ATOM     14  C   UNL     1      23.882  42.491  49.920  0.00  0.00    +0.000 A 
ATOM     15  C   UNL     1      26.264  42.882  49.966  0.00  0.00    +0.000 A 
ATOM     16  C   UNL     1      25.003  43.064  50.525  0.00  0.00    +0.000 A 
ENDBRANCH   9  12
ENDBRANCH   3   9
ENDBRANCH   1   8
BRANCH   2  17
ATOM     17  N   UNL     1      18.169  40.989  44.593  0.00  0.00    +0.000 N 
ATOM     18  C   UNL     1      19.169  40.373  43.855  0.00  0.00    +0.000 C 
ATOM     19  O   UNL     1      19.982  40.987  43.169  0.00  0.00    +0.000 OA
ATOM     20  H   UNL     1      17.568  40.444  45.150  0.00  0.00    +0.000 HD
BRANCH  18  21
ATOM     21  C   UNL     1      19.114  38.855  43.885  0.00  0.00    +0.000 C 
BRANCH  21  22
ATOM     22  C   UNL     1      17.791  38.339  44.439  0.00  0.00    +0.000 C 
ATOM     23  C   UNL     1      17.533  38.783  45.881  0.00  0.00    +0.000 C 
ATOM     24  C   UNL     1      17.705  36.821  44.563  0.00  0.00    +0.000 C 
ATOM     25  C   UNL     1      16.461  37.823  46.395  0.00  0.00    +0.000 C 
ATOM     26  C   UNL     1      16.495  36.611  45.463  0.00  0.00    +0.000 C 
ENDBRANCH  21  22
ENDBRANCH  18  21
ENDBRANCH   2  17
BRANCH   2  27
ATOM     27  C   UNL     1      16.821  42.954  43.855  0.00  0.00    +0.000 C 
ATOM     28  O   UNL     1      16.318  44.028  44.129  0.00  0.00    +0.000 OA
ATOM     29  OXT UNL     1      16.330  42.124  42.907  0.00  0.00    +0.000 OA
ENDBRANCH   2  27
TORSDOF 7
ENDMDL
MODEL 8
REMARK VINA RESULT:      -7.1      2.090      4.216
REMARK  Name = 323416
REMARK  7 active torsions:
REMARK  status: ('A' for Active; 'I' for Inactive)
REMARK    1  A    between atoms: C_3  and  O_5
REMARK    2  A    between atoms: O_5  and  C_8
REMARK    3  A    between atoms: C_14  and  C_15
REMARK    4  A    between atoms: CA_16  and  N_17
REMARK    5  A    between atoms: CA_16  and  C_18
REMARK    6  A    between atoms: C_19  and  C_23
REMARK    7  A    between atoms: C_23  and  C_24
REMARK                            x       y       z     vdW  Elec       q    Type
REMARK                         _______ _______ _______ _____ _____    ______ ____
ROOT
ATOM      1  C   UNL     1      23.733  40.733  45.574  0.00  0.00    +0.000 C 
ATOM      2  CA  UNL     1      23.566  41.125  46.847  0.00  0.00    +0.000 C 
ENDROOT
BRANCH   1   8
ATOM      3  C   UNL     1      20.351  39.577  43.327  0.00  0.00    +0.000 A 
ATOM      4  C   UNL     1      21.146  38.592  43.914  0.00  0.00    +0.000 A 
ATOM      5  C   UNL     1      20.826  40.891  43.232  0.00  0.00    +0.000 A 
ATOM      6  C   UNL     1      22.336  38.949  44.557  0.00  0.00    +0.000 A 
ATOM      7  C   UNL     1      21.993  41.252  43.899  0.00  0.00    +0.000 A 
ATOM      8  C   UNL     1      22.723  40.292  44.610  0.00  0.00    +0.000 A 
BRANCH   3   9
ATOM      9  O   UNL     1      19.089  39.219  42.899  0.00  0.00    +0.000 OA
BRANCH   9  12
ATOM     10 BR   UNL     1      16.960  41.392  43.433  0.00  0.00    +0.000 Br
ATOM     11  C   UNL     1      17.164  39.693  44.248  0.00  0.00    +0.000 A 
ATOM     12  C   UNL     1      18.177  38.806  43.860  0.00  0.00    +0.000 A 
ATOM     13  C   UNL     1      16.261  39.336  45.261  0.00  0.00    +0.000 A 
ATOM     14  C   UNL     1      18.212  37.527  44.440  0.00  0.00    +0.000 A 
ATOM     15  C   UNL     1      16.356  38.089  45.879  0.00  0.00    +0.000 A 
ATOM     16  C   UNL     1      17.324  37.181  45.461  0.00  0.00    +0.000 A 
ENDBRANCH   9  12
ENDBRANCH   3   9
ENDBRANCH   1   8
BRANCH   2  17
ATOM     17  N   UNL     1      22.332  41.271  47.466  0.00  0.00    +0.000 N 
ATOM     18  C   UNL     1      21.495  42.325  47.129  0.00  0.00    +0.000 C 
ATOM     19  O   UNL     1      21.760  43.150  46.260  0.00  0.00    +0.000 OA
ATOM     20  H   UNL     1      22.049  40.621  48.149  0.00  0.00    +0.000 HD
BRANCH  18  21
ATOM     21  C   UNL     1      20.256  42.434  48.002  0.00  0.00    +0.000 C 
BRANCH  21  22
ATOM     22  C   UNL     1      19.003  42.731  47.185  0.00  0.00    +0.000 C 
ATOM     23  C   UNL     1      18.261  43.981  47.665  0.00  0.00    +0.000 C 
ATOM     24  C   UNL     1      17.914  41.667  47.287  0.00  0.00    +0.000 C 
ATOM     25  C   UNL     1      16.856  43.845  47.076  0.00  0.00    +0.000 C 
ATOM     26  C   UNL     1      16.687  42.368  46.721  0.00  0.00    +0.000 C 
ENDBRANCH  21  22
ENDBRANCH  18  21
ENDBRANCH   2  17
BRANCH   2  27
ATOM     27  C   UNL     1      24.820  41.303  47.645  0.00  0.00    +0.000 C 
ATOM     28  O   UNL     1      25.938  41.027  47.250  0.00  0.00    +0.000 OA
ATOM     29  OXT UNL     1      24.565  41.764  48.891  0.00  0.00    +0.000 OA
ENDBRANCH   2  27
TORSDOF 7
ENDMDL
MODEL 9
REMARK VINA RESULT:      -7.0      2.375      4.545
REMARK  Name = 323416
REMARK  7 active torsions:
REMARK  status: ('A' for Active; 'I' for Inactive)
REMARK    1  A    between atoms: C_3  and  O_5
REMARK    2  A    between atoms: O_5  and  C_8
REMARK    3  A    between atoms: C_14  and  C_15
REMARK    4  A    between atoms: CA_16  and  N_17
REMARK    5  A    between atoms: CA_16  and  C_18
REMARK    6  A    between atoms: C_19  and  C_23
REMARK    7  A    between atoms: C_23  and  C_24
REMARK                            x       y       z     vdW  Elec       q    Type
REMARK                         _______ _______ _______ _____ _____    ______ ____
ROOT
ATOM      1  C   UNL     1      22.650  39.187  44.242  0.00  0.00    +0.000 C 
ATOM      2  CA  UNL     1      23.390  39.660  45.257  0.00  0.00    +0.000 C 
ENDROOT
BRANCH   1   8
ATOM      3  C   UNL     1      18.705  40.564  43.637  0.00  0.00    +0.000 A 
ATOM      4  C   UNL     1      18.948  39.191  43.663  0.00  0.00    +0.000 A 
ATOM      5  C   UNL     1      19.774  41.460  43.514  0.00  0.00    +0.000 A 
ATOM      6  C   UNL     1      20.263  38.718  43.740  0.00  0.00    +0.000 A 
ATOM      7  C   UNL     1      21.081  40.992  43.621  0.00  0.00    +0.000 A 
ATOM      8  C   UNL     1      21.328  39.625  43.790  0.00  0.00    +0.000 A 
BRANCH   3   9
ATOM      9  O   UNL     1      17.401  40.993  43.782  0.00  0.00    +0.000 OA
BRANCH   9  12
ATOM     10 BR   UNL     1      17.043  39.557  46.494  0.00  0.00    +0.000 Br
ATOM     11  C   UNL     1      16.903  41.404  46.092  0.00  0.00    +0.000 A 
ATOM     12  C   UNL     1      17.131  41.897  44.800  0.00  0.00    +0.000 A 
ATOM     13  C   UNL     1      16.565  42.281  47.134  0.00  0.00    +0.000 A 
ATOM     14  C   UNL     1      17.103  43.286  44.593  0.00  0.00    +0.000 A 
ATOM     15  C   UNL     1      16.469  43.652  46.894  0.00  0.00    +0.000 A 
ATOM     16  C   UNL     1      16.748  44.155  45.628  0.00  0.00    +0.000 A 
ENDBRANCH   9  12
ENDBRANCH   3   9
ENDBRANCH   1   8
BRANCH   2  17
ATOM     17  N   UNL     1      23.046  40.758  46.033  0.00  0.00    +0.000 N 
ATOM     18  C   UNL     1      22.792  40.612  47.389  0.00  0.00    +0.000 C 
ATOM     19  O   UNL     1      22.891  39.543  47.985  0.00  0.00    +0.000 OA
ATOM     20  H   UNL     1      22.982  41.648  45.617  0.00  0.00    +0.000 HD
BRANCH  18  21
ATOM     21  C   UNL     1      22.279  41.873  48.062  0.00  0.00    +0.000 C 
BRANCH  21  22
ATOM     22  C   UNL     1      23.404  42.682  48.700  0.00  0.00    +0.000 C 
ATOM     23  C   UNL     1      24.795  42.153  48.344  0.00  0.00    +0.000 C 
ATOM     24  C   UNL     1      23.434  42.631  50.224  0.00  0.00    +0.000 C 
ATOM     25  C   UNL     1      25.718  42.753  49.405  0.00  0.00    +0.000 C 
ATOM     26  C   UNL     1      24.816  43.172  50.565  0.00  0.00    +0.000 C 
ENDBRANCH  21  22
ENDBRANCH  18  21
ENDBRANCH   2  17
BRANCH   2  27
ATOM     27  C   UNL     1      24.602  38.855  45.609  0.00  0.00    +0.000 C 
ATOM     28  O   UNL     1      24.611  37.649  45.771  0.00  0.00    +0.000 OA
ATOM     29  OXT UNL     1      25.694  39.636  45.780  0.00  0.00    +0.000 OA
ENDBRANCH   2  27
TORSDOF 7
ENDMDL
