MODEL 1
REMARK VINA RESULT:      -5.8      0.000      0.000
REMARK  Name = 320413
REMARK  6 active torsions:
REMARK  status: ('A' for Active; 'I' for Inactive)
REMARK    1  A    between atoms: C_3  and  O_5
REMARK    2  A    between atoms: O_5  and  C_8
REMARK    3  A    between atoms: C_14  and  C_15
REMARK    4  A    between atoms: CA_16  and  N_17
REMARK    5  A    between atoms: CA_16  and  C_18
REMARK    6  A    between atoms: C_19  and  C_23
REMARK                            x       y       z     vdW  Elec       q    Type
REMARK                         _______ _______ _______ _____ _____    ______ ____
ROOT
ATOM      1  C   UNL     1      18.814  43.434  45.189  0.00  0.00    +0.000 C 
ATOM      2  CA  UNL     1      17.873  42.652  44.630  0.00  0.00    +0.000 C 
ENDROOT
BRANCH   1   8
ATOM      3  C   UNL     1      21.985  41.793  47.479  0.00  0.00    +0.000 A 
ATOM      4  C   UNL     1      20.720  41.911  48.052  0.00  0.00    +0.000 A 
ATOM      5  C   UNL     1      22.266  42.442  46.273  0.00  0.00    +0.000 A 
ATOM      6  C   UNL     1      19.694  42.545  47.343  0.00  0.00    +0.000 A 
ATOM      7  C   UNL     1      21.235  43.053  45.554  0.00  0.00    +0.000 A 
ATOM      8  C   UNL     1      19.933  43.066  46.066  0.00  0.00    +0.000 A 
BRANCH   3   9
ATOM      9  O   UNL     1      22.914  41.007  48.129  0.00  0.00    +0.000 OA
BRANCH   9  12
ATOM     10 BR   UNL     1      25.516  40.555  46.522  0.00  0.00    +0.000 Br
ATOM     11  C   UNL     1      25.261  41.502  48.145  0.00  0.00    +0.000 A 
ATOM     12  C   UNL     1      23.993  41.642  48.724  0.00  0.00    +0.000 A 
ATOM     13  C   UNL     1      26.385  42.070  48.759  0.00  0.00    +0.000 A 
ATOM     14  C   UNL     1      23.859  42.441  49.871  0.00  0.00    +0.000 A 
ATOM     15  C   UNL     1      26.246  42.796  49.943  0.00  0.00    +0.000 A 
ATOM     16  C   UNL     1      24.983  42.993  50.490  0.00  0.00    +0.000 A 
ENDBRANCH   9  12
ENDBRANCH   3   9
ENDBRANCH   1   8
BRANCH   2  17
ATOM     17  N   UNL     1      17.846  41.265  44.645  0.00  0.00    +0.000 N 
ATOM     18  C   UNL     1      17.039  40.568  45.529  0.00  0.00    +0.000 C 
ATOM     19  O   UNL     1      16.376  41.102  46.415  0.00  0.00    +0.000 OA
ATOM     20  H   UNL     1      18.413  40.766  44.014  0.00  0.00    +0.000 HD
BRANCH  18  21
ATOM     21  C   UNL     1      17.112  39.084  45.493  0.00  0.00    +0.000 A 
ATOM     22  C   UNL     1      16.401  38.378  46.476  0.00  0.00    +0.000 A 
ATOM     23  C   UNL     1      17.789  38.383  44.489  0.00  0.00    +0.000 A 
ATOM     24  C   UNL     1      16.345  36.984  46.448  0.00  0.00    +0.000 A 
ATOM     25  C   UNL     1      17.728  36.984  44.459  0.00  0.00    +0.000 A 
ATOM     26  C   UNL     1      16.999  36.294  45.432  0.00  0.00    +0.000 A 
ATOM     27 BR   UNL     1      16.863  34.411  45.350  0.00  0.00    +0.000 Br
ENDBRANCH  18  21
ENDBRANCH   2  17
BRANCH   2  28
ATOM     28  C   UNL     1      16.761  43.378  43.931  0.00  0.00    +0.000 C 
ATOM     29  O   UNL     1      16.282  44.442  44.282  0.00  0.00    +0.000 OA
ATOM     30  OXT UNL     1      16.334  42.692  42.846  0.00  0.00    +0.000 OA
ENDBRANCH   2  28
TORSDOF 6
ENDMDL
MODEL 2
REMARK VINA RESULT:      -4.2      3.444      7.627
REMARK  Name = 320413
REMARK  6 active torsions:
REMARK  status: ('A' for Active; 'I' for Inactive)
REMARK    1  A    between atoms: C_3  and  O_5
REMARK    2  A    between atoms: O_5  and  C_8
REMARK    3  A    between atoms: C_14  and  C_15
REMARK    4  A    between atoms: CA_16  and  N_17
REMARK    5  A    between atoms: CA_16  and  C_18
REMARK    6  A    between atoms: C_19  and  C_23
REMARK                            x       y       z     vdW  Elec       q    Type
REMARK                         _______ _______ _______ _____ _____    ______ ____
ROOT
ATOM      1  C   UNL     1      24.168  40.680  46.030  0.00  0.00    +0.000 C 
ATOM      2  CA  UNL     1      23.922  41.547  47.028  0.00  0.00    +0.000 C 
ENDROOT
BRANCH   1   8
ATOM      3  C   UNL     1      21.082  39.341  43.447  0.00  0.00    +0.000 A 
ATOM      4  C   UNL     1      21.727  38.422  44.272  0.00  0.00    +0.000 A 
ATOM      5  C   UNL     1      21.616  40.621  43.279  0.00  0.00    +0.000 A 
ATOM      6  C   UNL     1      22.814  38.833  45.051  0.00  0.00    +0.000 A 
ATOM      7  C   UNL     1      22.687  41.039  44.076  0.00  0.00    +0.000 A 
ATOM      8  C   UNL     1      23.261  40.158  45.000  0.00  0.00    +0.000 A 
BRANCH   3   9
ATOM      9  O   UNL     1      19.910  38.944  42.838  0.00  0.00    +0.000 OA
BRANCH   9  12
ATOM     10 BR   UNL     1      18.242  41.547  42.832  0.00  0.00    +0.000 Br
ATOM     11  C   UNL     1      17.933  39.930  43.773  0.00  0.00    +0.000 A 
ATOM     12  C   UNL     1      18.779  38.823  43.631  0.00  0.00    +0.000 A 
ATOM     13  C   UNL     1      16.821  39.866  44.623  0.00  0.00    +0.000 A 
ATOM     14  C   UNL     1      18.436  37.624  44.278  0.00  0.00    +0.000 A 
ATOM     15  C   UNL     1      16.538  38.691  45.321  0.00  0.00    +0.000 A 
ATOM     16  C   UNL     1      17.337  37.567  45.137  0.00  0.00    +0.000 A 
ENDBRANCH   9  12
ENDBRANCH   3   9
ENDBRANCH   1   8
BRANCH   2  17
ATOM     17  N   UNL     1      22.752  42.272  47.212  0.00  0.00    +0.000 N 
ATOM     18  C   UNL     1      21.536  41.639  47.407  0.00  0.00    +0.000 C 
ATOM     19  O   UNL     1      21.379  40.423  47.334  0.00  0.00    +0.000 OA
ATOM     20  H   UNL     1      22.789  43.255  47.204  0.00  0.00    +0.000 HD
BRANCH  18  21
ATOM     21  C   UNL     1      20.335  42.503  47.556  0.00  0.00    +0.000 A 
ATOM     22  C   UNL     1      19.763  43.021  46.383  0.00  0.00    +0.000 A 
ATOM     23  C   UNL     1      19.728  42.750  48.792  0.00  0.00    +0.000 A 
ATOM     24  C   UNL     1      18.581  43.759  46.437  0.00  0.00    +0.000 A 
ATOM     25  C   UNL     1      18.538  43.488  48.843  0.00  0.00    +0.000 A 
ATOM     26  C   UNL     1      17.967  43.979  47.666  0.00  0.00    +0.000 A 
ATOM     27 BR   UNL     1      16.327  44.916  47.733  0.00  0.00    +0.000 Br
ENDBRANCH  18  21
ENDBRANCH   2  17
BRANCH   2  28
ATOM     28  C   UNL     1      25.035  41.728  48.018  0.00  0.00    +0.000 C 
ATOM     29  O   UNL     1      26.212  41.497  47.805  0.00  0.00    +0.000 OA
ATOM     30  OXT UNL     1      24.567  42.178  49.205  0.00  0.00    +0.000 OA
ENDBRANCH   2  28
TORSDOF 6
ENDMDL
MODEL 3
REMARK VINA RESULT:      -4.2      1.570      2.250
REMARK  Name = 320413
REMARK  6 active torsions:
REMARK  status: ('A' for Active; 'I' for Inactive)
REMARK    1  A    between atoms: C_3  and  O_5
REMARK    2  A    between atoms: O_5  and  C_8
REMARK    3  A    between atoms: C_14  and  C_15
REMARK    4  A    between atoms: CA_16  and  N_17
REMARK    5  A    between atoms: CA_16  and  C_18
REMARK    6  A    between atoms: C_19  and  C_23
REMARK                            x       y       z     vdW  Elec       q    Type
REMARK                         _______ _______ _______ _____ _____    ______ ____
ROOT
ATOM      1  C   UNL     1      19.132  43.306  45.080  0.00  0.00    +0.000 C 
ATOM      2  CA  UNL     1      17.961  42.702  45.352  0.00  0.00    +0.000 C 
ENDROOT
BRANCH   1   8
ATOM      3  C   UNL     1      22.826  41.238  45.336  0.00  0.00    +0.000 A 
ATOM      4  C   UNL     1      22.627  42.377  46.114  0.00  0.00    +0.000 A 
ATOM      5  C   UNL     1      21.935  40.936  44.302  0.00  0.00    +0.000 A 
ATOM      6  C   UNL     1      21.454  43.124  45.961  0.00  0.00    +0.000 A 
ATOM      7  C   UNL     1      20.752  41.668  44.166  0.00  0.00    +0.000 A 
ATOM      8  C   UNL     1      20.485  42.739  45.027  0.00  0.00    +0.000 A 
BRANCH   3   9
ATOM      9  O   UNL     1      23.903  40.432  45.643  0.00  0.00    +0.000 OA
BRANCH   9  12
ATOM     10 BR   UNL     1      23.346  39.071  48.363  0.00  0.00    +0.000 Br
ATOM     11  C   UNL     1      24.640  40.388  47.926  0.00  0.00    +0.000 A 
ATOM     12  C   UNL     1      24.782  40.874  46.620  0.00  0.00    +0.000 A 
ATOM     13  C   UNL     1      25.464  40.866  48.952  0.00  0.00    +0.000 A 
ATOM     14  C   UNL     1      25.827  41.772  46.344  0.00  0.00    +0.000 A 
ATOM     15  C   UNL     1      26.447  41.818  48.677  0.00  0.00    +0.000 A 
ATOM     16  C   UNL     1      26.637  42.260  47.371  0.00  0.00    +0.000 A 
ENDBRANCH   9  12
ENDBRANCH   3   9
ENDBRANCH   1   8
BRANCH   2  17
ATOM     17  N   UNL     1      17.760  41.337  45.501  0.00  0.00    +0.000 N 
ATOM     18  C   UNL     1      17.340  40.550  44.442  0.00  0.00    +0.000 C 
ATOM     19  O   UNL     1      17.023  40.996  43.343  0.00  0.00    +0.000 OA
ATOM     20  H   UNL     1      17.919  40.920  46.379  0.00  0.00    +0.000 HD
BRANCH  18  21
ATOM     21  C   UNL     1      17.115  39.106  44.714  0.00  0.00    +0.000 A 
ATOM     22  C   UNL     1      17.951  38.187  44.060  0.00  0.00    +0.000 A 
ATOM     23  C   UNL     1      16.168  38.648  45.637  0.00  0.00    +0.000 A 
ATOM     24  C   UNL     1      17.862  36.823  44.340  0.00  0.00    +0.000 A 
ATOM     25  C   UNL     1      16.083  37.278  45.920  0.00  0.00    +0.000 A 
ATOM     26  C   UNL     1      16.936  36.377  45.278  0.00  0.00    +0.000 A 
ATOM     27 BR   UNL     1      16.865  34.539  45.712  0.00  0.00    +0.000 Br
ENDBRANCH  18  21
ENDBRANCH   2  17
BRANCH   2  28
ATOM     28  C   UNL     1      16.781  43.616  45.501  0.00  0.00    +0.000 C 
ATOM     29  O   UNL     1      16.225  44.205  44.590  0.00  0.00    +0.000 OA
ATOM     30  OXT UNL     1      16.402  43.721  46.796  0.00  0.00    +0.000 OA
ENDBRANCH   2  28
TORSDOF 6
ENDMDL
MODEL 4
REMARK VINA RESULT:      -4.1      4.439      9.989
REMARK  Name = 320413
REMARK  6 active torsions:
REMARK  status: ('A' for Active; 'I' for Inactive)
REMARK    1  A    between atoms: C_3  and  O_5
REMARK    2  A    between atoms: O_5  and  C_8
REMARK    3  A    between atoms: C_14  and  C_15
REMARK    4  A    between atoms: CA_16  and  N_17
REMARK    5  A    between atoms: CA_16  and  C_18
REMARK    6  A    between atoms: C_19  and  C_23
REMARK                            x       y       z     vdW  Elec       q    Type
REMARK                         _______ _______ _______ _____ _____    ______ ____
ROOT
ATOM      1  C   UNL     1      24.963  41.312  47.531  0.00  0.00    +0.000 C 
ATOM      2  CA  UNL     1      26.038  42.116  47.613  0.00  0.00    +0.000 C 
ENDROOT
BRANCH   1   8
ATOM      3  C   UNL     1      21.510  40.898  45.103  0.00  0.00    +0.000 A 
ATOM      4  C   UNL     1      22.695  40.277  44.714  0.00  0.00    +0.000 A 
ATOM      5  C   UNL     1      21.526  41.851  46.126  0.00  0.00    +0.000 A 
ATOM      6  C   UNL     1      23.865  40.492  45.451  0.00  0.00    +0.000 A 
ATOM      7  C   UNL     1      22.688  42.045  46.878  0.00  0.00    +0.000 A 
ATOM      8  C   UNL     1      23.852  41.331  46.571  0.00  0.00    +0.000 A 
BRANCH   3   9
ATOM      9  O   UNL     1      20.348  40.520  44.463  0.00  0.00    +0.000 OA
BRANCH   9  12
ATOM     10 BR   UNL     1      18.855  42.496  42.611  0.00  0.00    +0.000 Br
ATOM     11  C   UNL     1      18.360  41.856  44.326  0.00  0.00    +0.000 A 
ATOM     12  C   UNL     1      19.144  40.924  45.019  0.00  0.00    +0.000 A 
ATOM     13  C   UNL     1      17.173  42.340  44.891  0.00  0.00    +0.000 A 
ATOM     14  C   UNL     1      18.668  40.416  46.239  0.00  0.00    +0.000 A 
ATOM     15  C   UNL     1      16.754  41.883  46.142  0.00  0.00    +0.000 A 
ATOM     16  C   UNL     1      17.493  40.911  46.808  0.00  0.00    +0.000 A 
ENDBRANCH   9  12
ENDBRANCH   3   9
ENDBRANCH   1   8
BRANCH   2  17
ATOM     17  N   UNL     1      26.413  43.077  46.684  0.00  0.00    +0.000 N 
ATOM     18  C   UNL     1      26.754  44.362  47.073  0.00  0.00    +0.000 C 
ATOM     19  O   UNL     1      26.657  44.774  48.226  0.00  0.00    +0.000 OA
ATOM     20  H   UNL     1      26.437  42.839  45.729  0.00  0.00    +0.000 HD
BRANCH  18  21
ATOM     21  C   UNL     1      27.103  45.329  46.000  0.00  0.00    +0.000 A 
ATOM     22  C   UNL     1      27.671  44.812  44.825  0.00  0.00    +0.000 A 
ATOM     23  C   UNL     1      26.819  46.696  46.090  0.00  0.00    +0.000 A 
ATOM     24  C   UNL     1      27.936  45.646  43.738  0.00  0.00    +0.000 A 
ATOM     25  C   UNL     1      27.081  47.531  44.997  0.00  0.00    +0.000 A 
ATOM     26  C   UNL     1      27.627  47.001  43.825  0.00  0.00    +0.000 A 
ATOM     27 BR   UNL     1      27.916  48.118  42.329  0.00  0.00    +0.000 Br
ENDBRANCH  18  21
ENDBRANCH   2  17
BRANCH   2  28
ATOM     28  C   UNL     1      26.893  41.932  48.832  0.00  0.00    +0.000 C 
ATOM     29  O   UNL     1      27.900  41.250  48.891  0.00  0.00    +0.000 OA
ATOM     30  OXT UNL     1      26.397  42.621  49.887  0.00  0.00    +0.000 OA
ENDBRANCH   2  28
TORSDOF 6
ENDMDL
MODEL 5
REMARK VINA RESULT:      -4.1      3.357      8.444
REMARK  Name = 320413
REMARK  6 active torsions:
REMARK  status: ('A' for Active; 'I' for Inactive)
REMARK    1  A    between atoms: C_3  and  O_5
REMARK    2  A    between atoms: O_5  and  C_8
REMARK    3  A    between atoms: C_14  and  C_15
REMARK    4  A    between atoms: CA_16  and  N_17
REMARK    5  A    between atoms: CA_16  and  C_18
REMARK    6  A    between atoms: C_19  and  C_23
REMARK                            x       y       z     vdW  Elec       q    Type
REMARK                         _______ _______ _______ _____ _____    ______ ____
ROOT
ATOM      1  C   UNL     1      23.282  38.917  44.602  0.00  0.00    +0.000 C 
ATOM      2  CA  UNL     1      23.909  38.694  45.770  0.00  0.00    +0.000 C 
ENDROOT
BRANCH   1   8
ATOM      3  C   UNL     1      20.250  41.811  43.955  0.00  0.00    +0.000 A 
ATOM      4  C   UNL     1      20.315  40.695  43.124  0.00  0.00    +0.000 A 
ATOM      5  C   UNL     1      21.315  42.105  44.812  0.00  0.00    +0.000 A 
ATOM      6  C   UNL     1      21.372  39.788  43.262  0.00  0.00    +0.000 A 
ATOM      7  C   UNL     1      22.357  41.186  44.968  0.00  0.00    +0.000 A 
ATOM      8  C   UNL     1      22.365  40.000  44.225  0.00  0.00    +0.000 A 
BRANCH   3   9
ATOM      9  O   UNL     1      19.104  42.578  43.910  0.00  0.00    +0.000 OA
BRANCH   9  12
ATOM     10 BR   UNL     1      16.855  40.456  43.970  0.00  0.00    +0.000 Br
ATOM     11  C   UNL     1      17.256  41.812  45.234  0.00  0.00    +0.000 A 
ATOM     12  C   UNL     1      18.347  42.675  45.068  0.00  0.00    +0.000 A 
ATOM     13  C   UNL     1      16.426  41.930  46.357  0.00  0.00    +0.000 A 
ATOM     14  C   UNL     1      18.647  43.589  46.091  0.00  0.00    +0.000 A 
ATOM     15  C   UNL     1      16.693  42.898  47.328  0.00  0.00    +0.000 A 
ATOM     16  C   UNL     1      17.810  43.716  47.201  0.00  0.00    +0.000 A 
ENDBRANCH   9  12
ENDBRANCH   3   9
ENDBRANCH   1   8
BRANCH   2  17
ATOM     17  N   UNL     1      23.939  39.553  46.860  0.00  0.00    +0.000 N 
ATOM     18  C   UNL     1      24.864  40.581  46.942  0.00  0.00    +0.000 C 
ATOM     19  O   UNL     1      25.771  40.750  46.132  0.00  0.00    +0.000 OA
ATOM     20  H   UNL     1      23.289  39.429  47.589  0.00  0.00    +0.000 HD
BRANCH  18  21
ATOM     21  C   UNL     1      24.840  41.422  48.168  0.00  0.00    +0.000 A 
ATOM     22  C   UNL     1      23.609  41.571  48.825  0.00  0.00    +0.000 A 
ATOM     23  C   UNL     1      25.993  41.995  48.716  0.00  0.00    +0.000 A 
ATOM     24  C   UNL     1      23.528  42.265  50.033  0.00  0.00    +0.000 A 
ATOM     25  C   UNL     1      25.911  42.688  49.931  0.00  0.00    +0.000 A 
ATOM     26  C   UNL     1      24.684  42.810  50.586  0.00  0.00    +0.000 A 
ATOM     27 BR   UNL     1      24.589  43.687  52.258  0.00  0.00    +0.000 Br
ENDBRANCH  18  21
ENDBRANCH   2  17
BRANCH   2  28
ATOM     28  C   UNL     1      24.637  37.386  45.876  0.00  0.00    +0.000 C 
ATOM     29  O   UNL     1      25.682  37.112  45.312  0.00  0.00    +0.000 OA
ATOM     30  OXT UNL     1      23.977  36.521  46.680  0.00  0.00    +0.000 OA
ENDBRANCH   2  28
TORSDOF 6
ENDMDL
MODEL 6
REMARK VINA RESULT:      -3.6      1.657      2.325
REMARK  Name = 320413
REMARK  6 active torsions:
REMARK  status: ('A' for Active; 'I' for Inactive)
REMARK    1  A    between atoms: C_3  and  O_5
REMARK    2  A    between atoms: O_5  and  C_8
REMARK    3  A    between atoms: C_14  and  C_15
REMARK    4  A    between atoms: CA_16  and  N_17
REMARK    5  A    between atoms: CA_16  and  C_18
REMARK    6  A    between atoms: C_19  and  C_23
REMARK                            x       y       z     vdW  Elec       q    Type
REMARK                         _______ _______ _______ _____ _____    ______ ____
ROOT
ATOM      1  C   UNL     1      18.820  43.668  45.841  0.00  0.00    +0.000 C 
ATOM      2  CA  UNL     1      17.746  42.945  45.477  0.00  0.00    +0.000 C 
ENDROOT
BRANCH   1   8
ATOM      3  C   UNL     1      22.120  41.896  47.831  0.00  0.00    +0.000 A 
ATOM      4  C   UNL     1      20.952  42.155  48.546  0.00  0.00    +0.000 A 
ATOM      5  C   UNL     1      22.295  42.447  46.559  0.00  0.00    +0.000 A 
ATOM      6  C   UNL     1      19.896  42.833  47.926  0.00  0.00    +0.000 A 
ATOM      7  C   UNL     1      21.231  43.102  45.932  0.00  0.00    +0.000 A 
ATOM      8  C   UNL     1      20.010  43.257  46.598  0.00  0.00    +0.000 A 
BRANCH   3   9
ATOM      9  O   UNL     1      23.059  41.072  48.416  0.00  0.00    +0.000 OA
BRANCH   9  12
ATOM     10 BR   UNL     1      25.835  42.177  47.619  0.00  0.00    +0.000 Br
ATOM     11  C   UNL     1      25.001  40.553  47.106  0.00  0.00    +0.000 A 
ATOM     12  C   UNL     1      23.741  40.186  47.594  0.00  0.00    +0.000 A 
ATOM     13  C   UNL     1      25.686  39.715  46.217  0.00  0.00    +0.000 A 
ATOM     14  C   UNL     1      23.226  38.924  47.254  0.00  0.00    +0.000 A 
ATOM     15  C   UNL     1      25.125  38.498  45.826  0.00  0.00    +0.000 A 
ATOM     16  C   UNL     1      23.902  38.097  46.356  0.00  0.00    +0.000 A 
ENDBRANCH   9  12
ENDBRANCH   3   9
ENDBRANCH   1   8
BRANCH   2  17
ATOM     17  N   UNL     1      17.598  41.572  45.615  0.00  0.00    +0.000 N 
ATOM     18  C   UNL     1      18.101  40.694  44.669  0.00  0.00    +0.000 C 
ATOM     19  O   UNL     1      18.613  41.049  43.611  0.00  0.00    +0.000 OA
ATOM     20  H   UNL     1      17.126  41.216  46.402  0.00  0.00    +0.000 HD
BRANCH  18  21
ATOM     21  C   UNL     1      17.856  39.244  44.889  0.00  0.00    +0.000 A 
ATOM     22  C   UNL     1      16.948  38.887  45.898  0.00  0.00    +0.000 A 
ATOM     23  C   UNL     1      18.431  38.249  44.090  0.00  0.00    +0.000 A 
ATOM     24  C   UNL     1      16.596  37.552  46.096  0.00  0.00    +0.000 A 
ATOM     25  C   UNL     1      18.073  36.909  44.287  0.00  0.00    +0.000 A 
ATOM     26  C   UNL     1      17.151  36.570  45.281  0.00  0.00    +0.000 A 
ATOM     27 BR   UNL     1      16.620  34.770  45.500  0.00  0.00    +0.000 Br
ENDBRANCH  18  21
ENDBRANCH   2  17
BRANCH   2  28
ATOM     28  C   UNL     1      16.619  43.724  44.864  0.00  0.00    +0.000 C 
ATOM     29  O   UNL     1      16.256  43.645  43.704  0.00  0.00    +0.000 OA
ATOM     30  OXT UNL     1      16.046  44.552  45.769  0.00  0.00    +0.000 OA
ENDBRANCH   2  28
TORSDOF 6
ENDMDL
MODEL 7
REMARK VINA RESULT:      -3.4      1.269      2.042
REMARK  Name = 320413
REMARK  6 active torsions:
REMARK  status: ('A' for Active; 'I' for Inactive)
REMARK    1  A    between atoms: C_3  and  O_5
REMARK    2  A    between atoms: O_5  and  C_8
REMARK    3  A    between atoms: C_14  and  C_15
REMARK    4  A    between atoms: CA_16  and  N_17
REMARK    5  A    between atoms: CA_16  and  C_18
REMARK    6  A    between atoms: C_19  and  C_23
REMARK                            x       y       z     vdW  Elec       q    Type
REMARK                         _______ _______ _______ _____ _____    ______ ____
ROOT
ATOM      1  C   UNL     1      19.462  43.035  44.917  0.00  0.00    +0.000 C 
ATOM      2  CA  UNL     1      18.447  42.455  44.251  0.00  0.00    +0.000 C 
ENDROOT
BRANCH   1   8
ATOM      3  C   UNL     1      22.176  41.979  48.000  0.00  0.00    +0.000 A 
ATOM      4  C   UNL     1      22.642  42.095  46.692  0.00  0.00    +0.000 A 
ATOM      5  C   UNL     1      20.801  41.949  48.250  0.00  0.00    +0.000 A 
ATOM      6  C   UNL     1      21.737  42.341  45.653  0.00  0.00    +0.000 A 
ATOM      7  C   UNL     1      19.900  42.220  47.216  0.00  0.00    +0.000 A 
ATOM      8  C   UNL     1      20.369  42.463  45.920  0.00  0.00    +0.000 A 
BRANCH   3   9
ATOM      9  O   UNL     1      23.112  41.918  49.012  0.00  0.00    +0.000 OA
BRANCH   9  12
ATOM     10 BR   UNL     1      25.020  43.405  50.938  0.00  0.00    +0.000 Br
ATOM     11  C   UNL     1      25.435  42.377  49.399  0.00  0.00    +0.000 A 
ATOM     12  C   UNL     1      24.439  41.734  48.653  0.00  0.00    +0.000 A 
ATOM     13  C   UNL     1      26.780  42.271  49.022  0.00  0.00    +0.000 A 
ATOM     14  C   UNL     1      24.823  40.906  47.586  0.00  0.00    +0.000 A 
ATOM     15  C   UNL     1      27.138  41.507  47.910  0.00  0.00    +0.000 A 
ATOM     16  C   UNL     1      26.163  40.814  47.201  0.00  0.00    +0.000 A 
ENDBRANCH   9  12
ENDBRANCH   3   9
ENDBRANCH   1   8
BRANCH   2  17
ATOM     17  N   UNL     1      18.126  41.105  44.263  0.00  0.00    +0.000 N 
ATOM     18  C   UNL     1      17.270  40.576  45.214  0.00  0.00    +0.000 C 
ATOM     19  O   UNL     1      16.817  41.218  46.158  0.00  0.00    +0.000 OA
ATOM     20  H   UNL     1      18.516  40.511  43.581  0.00  0.00    +0.000 HD
BRANCH  18  21
ATOM     21  C   UNL     1      17.020  39.111  45.167  0.00  0.00    +0.000 A 
ATOM     22  C   UNL     1      17.872  38.336  44.363  0.00  0.00    +0.000 A 
ATOM     23  C   UNL     1      16.035  38.485  45.938  0.00  0.00    +0.000 A 
ATOM     24  C   UNL     1      17.759  36.946  44.345  0.00  0.00    +0.000 A 
ATOM     25  C   UNL     1      15.926  37.089  45.921  0.00  0.00    +0.000 A 
ATOM     26  C   UNL     1      16.793  36.328  45.134  0.00  0.00    +0.000 A 
ATOM     27 BR   UNL     1      16.688  34.441  45.166  0.00  0.00    +0.000 Br
ENDBRANCH  18  21
ENDBRANCH   2  17
BRANCH   2  28
ATOM     28  C   UNL     1      17.603  43.380  43.425  0.00  0.00    +0.000 C 
ATOM     29  O   UNL     1      16.614  43.974  43.819  0.00  0.00    +0.000 OA
ATOM     30  OXT UNL     1      18.071  43.473  42.159  0.00  0.00    +0.000 OA
ENDBRANCH   2  28
TORSDOF 6
ENDMDL
