MODEL 1
REMARK VINA RESULT:      -8.3      0.000      0.000
REMARK  Name = 320380
REMARK  6 active torsions:
REMARK  status: ('A' for Active; 'I' for Inactive)
REMARK    1  A    between atoms: C_3  and  O_5
REMARK    2  A    between atoms: O_5  and  C_8
REMARK    3  A    between atoms: C_14  and  C_15
REMARK    4  A    between atoms: CA_16  and  N_17
REMARK    5  A    between atoms: CA_16  and  C_18
REMARK    6  A    between atoms: C_19  and  C_23
REMARK                            x       y       z     vdW  Elec       q    Type
REMARK                         _______ _______ _______ _____ _____    ______ ____
ROOT
ATOM      1  C   UNL     1      20.207  42.475  43.435  0.00  0.00    +0.000 C 
ATOM      2  CA  UNL     1      19.034  41.916  43.093  0.00  0.00    +0.000 C 
ENDROOT
BRANCH   1   8
ATOM      3  C   UNL     1      22.422  41.229  46.829  0.00  0.00    +0.000 A 
ATOM      4  C   UNL     1      22.008  42.556  46.735  0.00  0.00    +0.000 A 
ATOM      5  C   UNL     1      22.340  40.391  45.713  0.00  0.00    +0.000 A 
ATOM      6  C   UNL     1      21.365  43.000  45.576  0.00  0.00    +0.000 A 
ATOM      7  C   UNL     1      21.683  40.830  44.561  0.00  0.00    +0.000 A 
ATOM      8  C   UNL     1      21.148  42.124  44.507  0.00  0.00    +0.000 A 
BRANCH   3   9
ATOM      9  O   UNL     1      22.870  40.786  48.055  0.00  0.00    +0.000 OA
BRANCH   9  12
ATOM     10 BR   UNL     1      25.644  40.546  46.722  0.00  0.00    +0.000 Br
ATOM     11  C   UNL     1      25.137  41.533  48.262  0.00  0.00    +0.000 A 
ATOM     12  C   UNL     1      23.813  41.561  48.714  0.00  0.00    +0.000 A 
ATOM     13  C   UNL     1      26.131  42.245  48.945  0.00  0.00    +0.000 A 
ATOM     14  C   UNL     1      23.485  42.389  49.800  0.00  0.00    +0.000 A 
ATOM     15  C   UNL     1      25.805  43.002  50.070  0.00  0.00    +0.000 A 
ATOM     16  C   UNL     1      24.480  43.086  50.489  0.00  0.00    +0.000 A 
ENDBRANCH   9  12
ENDBRANCH   3   9
ENDBRANCH   1   8
BRANCH   2  17
ATOM     17  N   UNL     1      18.483  40.745  43.585  0.00  0.00    +0.000 N 
ATOM     18  C   UNL     1      17.895  40.619  44.830  0.00  0.00    +0.000 C 
ATOM     19  O   UNL     1      17.780  41.533  45.638  0.00  0.00    +0.000 OA
ATOM     20  H   UNL     1      18.515  39.947  43.010  0.00  0.00    +0.000 HD
BRANCH  18  21
ATOM     21  C   UNL     1      17.517  39.249  45.266  0.00  0.00    +0.000 A 
ATOM     22  C   UNL     1      16.622  39.011  46.309  0.00  0.00    +0.000 A 
ATOM     23  C   UNL     1      18.010  38.160  44.532  0.00  0.00    +0.000 A 
ATOM     24  F   UNL     1      16.109  40.028  47.019  0.00  0.00    +0.000 F 
ATOM     25  C   UNL     1      16.203  37.716  46.611  0.00  0.00    +0.000 A 
ATOM     26  C   UNL     1      17.592  36.862  44.833  0.00  0.00    +0.000 A 
ATOM     27  C   UNL     1      16.683  36.641  45.869  0.00  0.00    +0.000 A 
ENDBRANCH  18  21
ENDBRANCH   2  17
BRANCH   2  28
ATOM     28  C   UNL     1      18.220  42.677  42.084  0.00  0.00    +0.000 C 
ATOM     29  O   UNL     1      18.439  43.813  41.706  0.00  0.00    +0.000 OA
ATOM     30  OXT UNL     1      17.191  41.925  41.618  0.00  0.00    +0.000 OA
ENDBRANCH   2  28
TORSDOF 6
ENDMDL
MODEL 2
REMARK VINA RESULT:      -7.3      3.722      7.932
REMARK  Name = 320380
REMARK  6 active torsions:
REMARK  status: ('A' for Active; 'I' for Inactive)
REMARK    1  A    between atoms: C_3  and  O_5
REMARK    2  A    between atoms: O_5  and  C_8
REMARK    3  A    between atoms: C_14  and  C_15
REMARK    4  A    between atoms: CA_16  and  N_17
REMARK    5  A    between atoms: CA_16  and  C_18
REMARK    6  A    between atoms: C_19  and  C_23
REMARK                            x       y       z     vdW  Elec       q    Type
REMARK                         _______ _______ _______ _____ _____    ______ ____
ROOT
ATOM      1  C   UNL     1      23.152  38.929  44.626  0.00  0.00    +0.000 C 
ATOM      2  CA  UNL     1      23.805  38.818  45.795  0.00  0.00    +0.000 C 
ENDROOT
BRANCH   1   8
ATOM      3  C   UNL     1      20.033  41.687  43.826  0.00  0.00    +0.000 A 
ATOM      4  C   UNL     1      20.025  40.447  43.190  0.00  0.00    +0.000 A 
ATOM      5  C   UNL     1      21.176  42.118  44.506  0.00  0.00    +0.000 A 
ATOM      6  C   UNL     1      21.100  39.572  43.370  0.00  0.00    +0.000 A 
ATOM      7  C   UNL     1      22.242  41.235  44.699  0.00  0.00    +0.000 A 
ATOM      8  C   UNL     1      22.186  39.938  44.172  0.00  0.00    +0.000 A 
BRANCH   3   9
ATOM      9  O   UNL     1      18.874  42.433  43.782  0.00  0.00    +0.000 OA
BRANCH   9  12
ATOM     10 BR   UNL     1      16.746  40.225  44.137  0.00  0.00    +0.000 Br
ATOM     11  C   UNL     1      17.135  41.704  45.260  0.00  0.00    +0.000 A 
ATOM     12  C   UNL     1      18.170  42.600  44.965  0.00  0.00    +0.000 A 
ATOM     13  C   UNL     1      16.354  41.882  46.409  0.00  0.00    +0.000 A 
ATOM     14  C   UNL     1      18.470  43.615  45.887  0.00  0.00    +0.000 A 
ATOM     15  C   UNL     1      16.614  42.943  47.278  0.00  0.00    +0.000 A 
ATOM     16  C   UNL     1      17.681  43.801  47.024  0.00  0.00    +0.000 A 
ENDBRANCH   9  12
ENDBRANCH   3   9
ENDBRANCH   1   8
BRANCH   2  17
ATOM     17  N   UNL     1      23.844  39.737  46.829  0.00  0.00    +0.000 N 
ATOM     18  C   UNL     1      24.806  40.720  46.968  0.00  0.00    +0.000 C 
ATOM     19  O   UNL     1      25.731  40.901  46.184  0.00  0.00    +0.000 OA
ATOM     20  H   UNL     1      23.137  39.687  47.514  0.00  0.00    +0.000 HD
BRANCH  18  21
ATOM     21  C   UNL     1      24.796  41.505  48.230  0.00  0.00    +0.000 A 
ATOM     22  C   UNL     1      25.962  41.987  48.825  0.00  0.00    +0.000 A 
ATOM     23  C   UNL     1      23.557  41.851  48.787  0.00  0.00    +0.000 A 
ATOM     24  F   UNL     1      27.168  41.699  48.308  0.00  0.00    +0.000 F 
ATOM     25  C   UNL     1      25.905  42.818  49.944  0.00  0.00    +0.000 A 
ATOM     26  C   UNL     1      23.497  42.683  49.907  0.00  0.00    +0.000 A 
ATOM     27  C   UNL     1      24.671  43.172  50.482  0.00  0.00    +0.000 A 
ENDBRANCH  18  21
ENDBRANCH   2  17
BRANCH   2  28
ATOM     28  C   UNL     1      24.547  37.528  46.006  0.00  0.00    +0.000 C 
ATOM     29  O   UNL     1      25.580  37.203  45.449  0.00  0.00    +0.000 OA
ATOM     30  OXT UNL     1      23.924  36.750  46.927  0.00  0.00    +0.000 OA
ENDBRANCH   2  28
TORSDOF 6
ENDMDL
MODEL 3
REMARK VINA RESULT:      -6.7      3.044      7.116
REMARK  Name = 320380
REMARK  6 active torsions:
REMARK  status: ('A' for Active; 'I' for Inactive)
REMARK    1  A    between atoms: C_3  and  O_5
REMARK    2  A    between atoms: O_5  and  C_8
REMARK    3  A    between atoms: C_14  and  C_15
REMARK    4  A    between atoms: CA_16  and  N_17
REMARK    5  A    between atoms: CA_16  and  C_18
REMARK    6  A    between atoms: C_19  and  C_23
REMARK                            x       y       z     vdW  Elec       q    Type
REMARK                         _______ _______ _______ _____ _____    ______ ____
ROOT
ATOM      1  C   UNL     1      24.015  40.749  45.887  0.00  0.00    +0.000 C 
ATOM      2  CA  UNL     1      23.801  41.565  46.933  0.00  0.00    +0.000 C 
ENDROOT
BRANCH   1   8
ATOM      3  C   UNL     1      20.859  39.390  43.403  0.00  0.00    +0.000 A 
ATOM      4  C   UNL     1      21.573  38.466  44.164  0.00  0.00    +0.000 A 
ATOM      5  C   UNL     1      21.339  40.695  43.256  0.00  0.00    +0.000 A 
ATOM      6  C   UNL     1      22.677  38.890  44.908  0.00  0.00    +0.000 A 
ATOM      7  C   UNL     1      22.433  41.121  44.013  0.00  0.00    +0.000 A 
ATOM      8  C   UNL     1      23.077  40.231  44.882  0.00  0.00    +0.000 A 
BRANCH   3   9
ATOM      9  O   UNL     1      19.669  38.973  42.845  0.00  0.00    +0.000 OA
BRANCH   9  12
ATOM     10 BR   UNL     1      17.894  41.498  42.894  0.00  0.00    +0.000 Br
ATOM     11  C   UNL     1      17.698  39.879  43.864  0.00  0.00    +0.000 A 
ATOM     12  C   UNL     1      18.584  38.808  43.693  0.00  0.00    +0.000 A 
ATOM     13  C   UNL     1      16.633  39.776  44.766  0.00  0.00    +0.000 A 
ATOM     14  C   UNL     1      18.327  37.603  44.366  0.00  0.00    +0.000 A 
ATOM     15  C   UNL     1      16.435  38.598  45.488  0.00  0.00    +0.000 A 
ATOM     16  C   UNL     1      17.273  37.507  45.278  0.00  0.00    +0.000 A 
ENDBRANCH   9  12
ENDBRANCH   3   9
ENDBRANCH   1   8
BRANCH   2  17
ATOM     17  N   UNL     1      22.642  42.258  47.237  0.00  0.00    +0.000 N 
ATOM     18  C   UNL     1      21.407  41.670  47.434  0.00  0.00    +0.000 C 
ATOM     19  O   UNL     1      21.195  40.464  47.374  0.00  0.00    +0.000 OA
ATOM     20  H   UNL     1      22.702  43.238  47.318  0.00  0.00    +0.000 HD
BRANCH  18  21
ATOM     21  C   UNL     1      20.239  42.578  47.575  0.00  0.00    +0.000 A 
ATOM     22  C   UNL     1      19.625  43.192  46.483  0.00  0.00    +0.000 A 
ATOM     23  C   UNL     1      19.677  42.744  48.849  0.00  0.00    +0.000 A 
ATOM     24  F   UNL     1      20.117  43.038  45.243  0.00  0.00    +0.000 F 
ATOM     25  C   UNL     1      18.461  43.943  46.643  0.00  0.00    +0.000 A 
ATOM     26  C   UNL     1      18.512  43.496  49.013  0.00  0.00    +0.000 A 
ATOM     27  C   UNL     1      17.900  44.090  47.908  0.00  0.00    +0.000 A 
ENDBRANCH  18  21
ENDBRANCH   2  17
BRANCH   2  28
ATOM     28  C   UNL     1      24.949  41.706  47.893  0.00  0.00    +0.000 C 
ATOM     29  O   UNL     1      26.121  41.506  47.634  0.00  0.00    +0.000 OA
ATOM     30  OXT UNL     1      24.518  42.110  49.115  0.00  0.00    +0.000 OA
ENDBRANCH   2  28
TORSDOF 6
ENDMDL
MODEL 4
REMARK VINA RESULT:      -6.7      3.031      8.031
REMARK  Name = 320380
REMARK  6 active torsions:
REMARK  status: ('A' for Active; 'I' for Inactive)
REMARK    1  A    between atoms: C_3  and  O_5
REMARK    2  A    between atoms: O_5  and  C_8
REMARK    3  A    between atoms: C_14  and  C_15
REMARK    4  A    between atoms: CA_16  and  N_17
REMARK    5  A    between atoms: CA_16  and  C_18
REMARK    6  A    between atoms: C_19  and  C_23
REMARK                            x       y       z     vdW  Elec       q    Type
REMARK                         _______ _______ _______ _____ _____    ______ ____
ROOT
ATOM      1  C   UNL     1      23.072  39.196  44.573  0.00  0.00    +0.000 C 
ATOM      2  CA  UNL     1      23.884  39.258  45.641  0.00  0.00    +0.000 C 
ENDROOT
BRANCH   1   8
ATOM      3  C   UNL     1      19.217  40.920  44.184  0.00  0.00    +0.000 A 
ATOM      4  C   UNL     1      19.611  39.924  43.292  0.00  0.00    +0.000 A 
ATOM      5  C   UNL     1      20.162  41.524  45.019  0.00  0.00    +0.000 A 
ATOM      6  C   UNL     1      20.914  39.421  43.350  0.00  0.00    +0.000 A 
ATOM      7  C   UNL     1      21.458  41.009  45.087  0.00  0.00    +0.000 A 
ATOM      8  C   UNL     1      21.826  39.920  44.286  0.00  0.00    +0.000 A 
BRANCH   3   9
ATOM      9  O   UNL     1      17.878  41.246  44.224  0.00  0.00    +0.000 OA
BRANCH   9  12
ATOM     10 BR   UNL     1      17.004  42.994  46.614  0.00  0.00    +0.000 Br
ATOM     11  C   UNL     1      16.618  41.170  46.260  0.00  0.00    +0.000 A 
ATOM     12  C   UNL     1      17.069  40.534  45.097  0.00  0.00    +0.000 A 
ATOM     13  C   UNL     1      15.860  40.463  47.202  0.00  0.00    +0.000 A 
ATOM     14  C   UNL     1      16.665  39.213  44.848  0.00  0.00    +0.000 A 
ATOM     15  C   UNL     1      15.531  39.125  46.978  0.00  0.00    +0.000 A 
ATOM     16  C   UNL     1      15.922  38.504  45.794  0.00  0.00    +0.000 A 
ENDBRANCH   9  12
ENDBRANCH   3   9
ENDBRANCH   1   8
BRANCH   2  17
ATOM     17  N   UNL     1      23.825  40.156  46.693  0.00  0.00    +0.000 N 
ATOM     18  C   UNL     1      24.736  41.174  46.906  0.00  0.00    +0.000 C 
ATOM     19  O   UNL     1      25.696  41.409  46.180  0.00  0.00    +0.000 OA
ATOM     20  H   UNL     1      23.084  40.063  47.335  0.00  0.00    +0.000 HD
BRANCH  18  21
ATOM     21  C   UNL     1      24.622  41.930  48.180  0.00  0.00    +0.000 A 
ATOM     22  C   UNL     1      23.397  42.188  48.796  0.00  0.00    +0.000 A 
ATOM     23  C   UNL     1      25.802  42.313  48.833  0.00  0.00    +0.000 A 
ATOM     24  F   UNL     1      22.244  41.815  48.215  0.00  0.00    +0.000 F 
ATOM     25  C   UNL     1      23.339  42.797  50.049  0.00  0.00    +0.000 A 
ATOM     26  C   UNL     1      25.747  42.923  50.088  0.00  0.00    +0.000 A 
ATOM     27  C   UNL     1      24.514  43.159  50.699  0.00  0.00    +0.000 A 
ENDBRANCH  18  21
ENDBRANCH   2  17
BRANCH   2  28
ATOM     28  C   UNL     1      24.955  38.205  45.707  0.00  0.00    +0.000 C 
ATOM     29  O   UNL     1      26.124  38.361  45.406  0.00  0.00    +0.000 OA
ATOM     30  OXT UNL     1      24.457  37.030  46.168  0.00  0.00    +0.000 OA
ENDBRANCH   2  28
TORSDOF 6
ENDMDL
MODEL 5
REMARK VINA RESULT:      -6.6      2.512      3.780
REMARK  Name = 320380
REMARK  6 active torsions:
REMARK  status: ('A' for Active; 'I' for Inactive)
REMARK    1  A    between atoms: C_3  and  O_5
REMARK    2  A    between atoms: O_5  and  C_8
REMARK    3  A    between atoms: C_14  and  C_15
REMARK    4  A    between atoms: CA_16  and  N_17
REMARK    5  A    between atoms: CA_16  and  C_18
REMARK    6  A    between atoms: C_19  and  C_23
REMARK                            x       y       z     vdW  Elec       q    Type
REMARK                         _______ _______ _______ _____ _____    ______ ____
ROOT
ATOM      1  C   UNL     1      20.881  38.899  44.209  0.00  0.00    +0.000 C 
ATOM      2  CA  UNL     1      19.688  39.492  44.391  0.00  0.00    +0.000 C 
ENDROOT
BRANCH   1   8
ATOM      3  C   UNL     1      24.472  40.226  46.032  0.00  0.00    +0.000 A 
ATOM      4  C   UNL     1      23.761  41.100  45.211  0.00  0.00    +0.000 A 
ATOM      5  C   UNL     1      24.155  38.865  46.044  0.00  0.00    +0.000 A 
ATOM      6  C   UNL     1      22.632  40.641  44.527  0.00  0.00    +0.000 A 
ATOM      7  C   UNL     1      23.016  38.412  45.374  0.00  0.00    +0.000 A 
ATOM      8  C   UNL     1      22.220  39.310  44.651  0.00  0.00    +0.000 A 
BRANCH   3   9
ATOM      9  O   UNL     1      25.455  40.764  46.836  0.00  0.00    +0.000 OA
BRANCH   9  12
ATOM     10 BR   UNL     1      27.856  41.502  48.630  0.00  0.00    +0.000 Br
ATOM     11  C   UNL     1      26.016  41.897  48.871  0.00  0.00    +0.000 A 
ATOM     12  C   UNL     1      25.052  41.513  47.931  0.00  0.00    +0.000 A 
ATOM     13  C   UNL     1      25.637  42.590  50.027  0.00  0.00    +0.000 A 
ATOM     14  C   UNL     1      23.722  41.922  48.120  0.00  0.00    +0.000 A 
ATOM     15  C   UNL     1      24.298  42.922  50.240  0.00  0.00    +0.000 A 
ATOM     16  C   UNL     1      23.343  42.600  49.280  0.00  0.00    +0.000 A 
ENDBRANCH   9  12
ENDBRANCH   3   9
ENDBRANCH   1   8
BRANCH   2  17
ATOM     17  N   UNL     1      19.404  40.585  45.191  0.00  0.00    +0.000 N 
ATOM     18  C   UNL     1      18.509  40.573  46.244  0.00  0.00    +0.000 C 
ATOM     19  O   UNL     1      17.871  39.589  46.601  0.00  0.00    +0.000 OA
ATOM     20  H   UNL     1      19.871  41.429  44.996  0.00  0.00    +0.000 HD
BRANCH  18  21
ATOM     21  C   UNL     1      18.194  41.878  46.881  0.00  0.00    +0.000 A 
ATOM     22  C   UNL     1      19.103  42.560  47.691  0.00  0.00    +0.000 A 
ATOM     23  C   UNL     1      16.970  42.489  46.573  0.00  0.00    +0.000 A 
ATOM     24  F   UNL     1      20.297  42.021  47.988  0.00  0.00    +0.000 F 
ATOM     25  C   UNL     1      18.816  43.836  48.174  0.00  0.00    +0.000 A 
ATOM     26  C   UNL     1      16.679  43.767  47.056  0.00  0.00    +0.000 A 
ATOM     27  C   UNL     1      17.606  44.443  47.851  0.00  0.00    +0.000 A 
ENDBRANCH  18  21
ENDBRANCH   2  17
BRANCH   2  28
ATOM     28  C   UNL     1      18.547  38.912  43.603  0.00  0.00    +0.000 C 
ATOM     29  O   UNL     1      18.200  37.746  43.609  0.00  0.00    +0.000 OA
ATOM     30  OXT UNL     1      17.920  39.869  42.873  0.00  0.00    +0.000 OA
ENDBRANCH   2  28
TORSDOF 6
ENDMDL
MODEL 6
REMARK VINA RESULT:      -6.5      1.588      2.199
REMARK  Name = 320380
REMARK  6 active torsions:
REMARK  status: ('A' for Active; 'I' for Inactive)
REMARK    1  A    between atoms: C_3  and  O_5
REMARK    2  A    between atoms: O_5  and  C_8
REMARK    3  A    between atoms: C_14  and  C_15
REMARK    4  A    between atoms: CA_16  and  N_17
REMARK    5  A    between atoms: CA_16  and  C_18
REMARK    6  A    between atoms: C_19  and  C_23
REMARK                            x       y       z     vdW  Elec       q    Type
REMARK                         _______ _______ _______ _____ _____    ______ ____
ROOT
ATOM      1  C   UNL     1      19.830  42.842  44.041  0.00  0.00    +0.000 C 
ATOM      2  CA  UNL     1      18.924  42.128  43.353  0.00  0.00    +0.000 C 
ENDROOT
BRANCH   1   8
ATOM      3  C   UNL     1      21.999  41.681  47.495  0.00  0.00    +0.000 A 
ATOM      4  C   UNL     1      20.771  41.079  47.227  0.00  0.00    +0.000 A 
ATOM      5  C   UNL     1      22.384  42.827  46.792  0.00  0.00    +0.000 A 
ATOM      6  C   UNL     1      20.003  41.525  46.147  0.00  0.00    +0.000 A 
ATOM      7  C   UNL     1      21.624  43.261  45.703  0.00  0.00    +0.000 A 
ATOM      8  C   UNL     1      20.453  42.579  45.345  0.00  0.00    +0.000 A 
BRANCH   3   9
ATOM      9  O   UNL     1      22.808  41.086  48.439  0.00  0.00    +0.000 OA
BRANCH   9  12
ATOM     10 BR   UNL     1      23.994  42.953  50.592  0.00  0.00    +0.000 Br
ATOM     11  C   UNL     1      24.871  42.069  49.160  0.00  0.00    +0.000 A 
ATOM     12  C   UNL     1      24.180  41.220  48.287  0.00  0.00    +0.000 A 
ATOM     13  C   UNL     1      26.244  42.288  48.994  0.00  0.00    +0.000 A 
ATOM     14  C   UNL     1      24.905  40.520  47.310  0.00  0.00    +0.000 A 
ATOM     15  C   UNL     1      26.937  41.644  47.968  0.00  0.00    +0.000 A 
ATOM     16  C   UNL     1      26.271  40.750  47.135  0.00  0.00    +0.000 A 
ENDBRANCH   9  12
ENDBRANCH   3   9
ENDBRANCH   1   8
BRANCH   2  17
ATOM     17  N   UNL     1      18.456  40.858  43.644  0.00  0.00    +0.000 N 
ATOM     18  C   UNL     1      17.370  40.591  44.457  0.00  0.00    +0.000 C 
ATOM     19  O   UNL     1      16.687  41.448  45.006  0.00  0.00    +0.000 OA
ATOM     20  H   UNL     1      18.929  40.093  43.245  0.00  0.00    +0.000 HD
BRANCH  18  21
ATOM     21  C   UNL     1      17.117  39.168  44.803  0.00  0.00    +0.000 A 
ATOM     22  C   UNL     1      17.852  38.117  44.253  0.00  0.00    +0.000 A 
ATOM     23  C   UNL     1      16.167  38.884  45.794  0.00  0.00    +0.000 A 
ATOM     24  F   UNL     1      18.789  38.349  43.319  0.00  0.00    +0.000 F 
ATOM     25  C   UNL     1      17.665  36.806  44.690  0.00  0.00    +0.000 A 
ATOM     26  C   UNL     1      15.977  37.572  46.233  0.00  0.00    +0.000 A 
ATOM     27  C   UNL     1      16.732  36.534  45.686  0.00  0.00    +0.000 A 
ENDBRANCH  18  21
ENDBRANCH   2  17
BRANCH   2  28
ATOM     28  C   UNL     1      18.333  42.811  42.152  0.00  0.00    +0.000 C 
ATOM     29  O   UNL     1      18.621  43.925  41.755  0.00  0.00    +0.000 OA
ATOM     30  OXT UNL     1      17.425  42.014  41.533  0.00  0.00    +0.000 OA
ENDBRANCH   2  28
TORSDOF 6
ENDMDL
MODEL 7
REMARK VINA RESULT:      -6.4      1.855      2.324
REMARK  Name = 320380
REMARK  6 active torsions:
REMARK  status: ('A' for Active; 'I' for Inactive)
REMARK    1  A    between atoms: C_3  and  O_5
REMARK    2  A    between atoms: O_5  and  C_8
REMARK    3  A    between atoms: C_14  and  C_15
REMARK    4  A    between atoms: CA_16  and  N_17
REMARK    5  A    between atoms: CA_16  and  C_18
REMARK    6  A    between atoms: C_19  and  C_23
REMARK                            x       y       z     vdW  Elec       q    Type
REMARK                         _______ _______ _______ _____ _____    ______ ____
ROOT
ATOM      1  C   UNL     1      19.106  43.249  45.141  0.00  0.00    +0.000 C 
ATOM      2  CA  UNL     1      17.905  42.651  45.219  0.00  0.00    +0.000 C 
ENDROOT
BRANCH   1   8
ATOM      3  C   UNL     1      22.797  41.170  45.325  0.00  0.00    +0.000 A 
ATOM      4  C   UNL     1      22.653  42.366  46.026  0.00  0.00    +0.000 A 
ATOM      5  C   UNL     1      21.843  40.798  44.373  0.00  0.00    +0.000 A 
ATOM      6  C   UNL     1      21.476  43.108  45.891  0.00  0.00    +0.000 A 
ATOM      7  C   UNL     1      20.661  41.532  44.252  0.00  0.00    +0.000 A 
ATOM      8  C   UNL     1      20.451  42.665  45.049  0.00  0.00    +0.000 A 
BRANCH   3   9
ATOM      9  O   UNL     1      23.880  40.375  45.636  0.00  0.00    +0.000 OA
BRANCH   9  12
ATOM     10 BR   UNL     1      23.329  39.055  48.371  0.00  0.00    +0.000 Br
ATOM     11  C   UNL     1      24.620  40.368  47.915  0.00  0.00    +0.000 A 
ATOM     12  C   UNL     1      24.761  40.837  46.603  0.00  0.00    +0.000 A 
ATOM     13  C   UNL     1      25.442  40.865  48.934  0.00  0.00    +0.000 A 
ATOM     14  C   UNL     1      25.800  41.735  46.313  0.00  0.00    +0.000 A 
ATOM     15  C   UNL     1      26.421  41.817  48.645  0.00  0.00    +0.000 A 
ATOM     16  C   UNL     1      26.609  42.241  47.332  0.00  0.00    +0.000 A 
ENDBRANCH   9  12
ENDBRANCH   3   9
ENDBRANCH   1   8
BRANCH   2  17
ATOM     17  N   UNL     1      17.624  41.304  45.075  0.00  0.00    +0.000 N 
ATOM     18  C   UNL     1      17.680  40.378  46.101  0.00  0.00    +0.000 C 
ATOM     19  O   UNL     1      17.973  40.645  47.260  0.00  0.00    +0.000 OA
ATOM     20  H   UNL     1      17.367  40.982  44.181  0.00  0.00    +0.000 HD
BRANCH  18  21
ATOM     21  C   UNL     1      17.521  38.947  45.731  0.00  0.00    +0.000 A 
ATOM     22  C   UNL     1      16.589  38.110  46.345  0.00  0.00    +0.000 A 
ATOM     23  C   UNL     1      18.275  38.452  44.658  0.00  0.00    +0.000 A 
ATOM     24  F   UNL     1      15.830  38.555  47.360  0.00  0.00    +0.000 F 
ATOM     25  C   UNL     1      16.388  36.807  45.891  0.00  0.00    +0.000 A 
ATOM     26  C   UNL     1      18.076  37.147  44.202  0.00  0.00    +0.000 A 
ATOM     27  C   UNL     1      17.127  36.327  44.814  0.00  0.00    +0.000 A 
ENDBRANCH  18  21
ENDBRANCH   2  17
BRANCH   2  28
ATOM     28  C   UNL     1      16.747  43.557  45.533  0.00  0.00    +0.000 C 
ATOM     29  O   UNL     1      16.302  43.782  46.643  0.00  0.00    +0.000 OA
ATOM     30  OXT UNL     1      16.250  44.125  44.405  0.00  0.00    +0.000 OA
ENDBRANCH   2  28
TORSDOF 6
ENDMDL
MODEL 8
REMARK VINA RESULT:      -6.3      3.011      7.403
REMARK  Name = 320380
REMARK  6 active torsions:
REMARK  status: ('A' for Active; 'I' for Inactive)
REMARK    1  A    between atoms: C_3  and  O_5
REMARK    2  A    between atoms: O_5  and  C_8
REMARK    3  A    between atoms: C_14  and  C_15
REMARK    4  A    between atoms: CA_16  and  N_17
REMARK    5  A    between atoms: CA_16  and  C_18
REMARK    6  A    between atoms: C_19  and  C_23
REMARK                            x       y       z     vdW  Elec       q    Type
REMARK                         _______ _______ _______ _____ _____    ______ ____
ROOT
ATOM      1  C   UNL     1      22.805  38.624  44.563  0.00  0.00    +0.000 C 
ATOM      2  CA  UNL     1      23.538  38.691  45.687  0.00  0.00    +0.000 C 
ENDROOT
BRANCH   1   8
ATOM      3  C   UNL     1      19.792  41.478  43.693  0.00  0.00    +0.000 A 
ATOM      4  C   UNL     1      19.444  40.298  44.348  0.00  0.00    +0.000 A 
ATOM      5  C   UNL     1      21.052  41.602  43.099  0.00  0.00    +0.000 A 
ATOM      6  C   UNL     1      20.411  39.309  44.550  0.00  0.00    +0.000 A 
ATOM      7  C   UNL     1      22.021  40.620  43.316  0.00  0.00    +0.000 A 
ATOM      8  C   UNL     1      21.718  39.490  44.086  0.00  0.00    +0.000 A 
BRANCH   3   9
ATOM      9  O   UNL     1      18.868  42.501  43.689  0.00  0.00    +0.000 OA
BRANCH   9  12
ATOM     10 BR   UNL     1      21.043  43.476  45.651  0.00  0.00    +0.000 Br
ATOM     11  C   UNL     1      19.174  43.303  45.926  0.00  0.00    +0.000 A 
ATOM     12  C   UNL     1      18.317  42.875  44.905  0.00  0.00    +0.000 A 
ATOM     13  C   UNL     1      18.662  43.619  47.191  0.00  0.00    +0.000 A 
ATOM     14  C   UNL     1      16.933  42.863  45.144  0.00  0.00    +0.000 A 
ATOM     15  C   UNL     1      17.292  43.528  47.437  0.00  0.00    +0.000 A 
ATOM     16  C   UNL     1      16.426  43.163  46.409  0.00  0.00    +0.000 A 
ENDBRANCH   9  12
ENDBRANCH   3   9
ENDBRANCH   1   8
BRANCH   2  17
ATOM     17  N   UNL     1      23.551  39.710  46.624  0.00  0.00    +0.000 N 
ATOM     18  C   UNL     1      24.523  40.690  46.702  0.00  0.00    +0.000 C 
ATOM     19  O   UNL     1      25.481  40.779  45.943  0.00  0.00    +0.000 OA
ATOM     20  H   UNL     1      22.818  39.737  47.281  0.00  0.00    +0.000 HD
BRANCH  18  21
ATOM     21  C   UNL     1      24.477  41.597  47.878  0.00  0.00    +0.000 A 
ATOM     22  C   UNL     1      23.288  41.922  48.533  0.00  0.00    +0.000 A 
ATOM     23  C   UNL     1      25.690  42.065  48.404  0.00  0.00    +0.000 A 
ATOM     24  F   UNL     1      22.108  41.472  48.076  0.00  0.00    +0.000 F 
ATOM     25  C   UNL     1      23.299  42.681  49.702  0.00  0.00    +0.000 A 
ATOM     26  C   UNL     1      25.703  42.826  49.575  0.00  0.00    +0.000 A 
ATOM     27  C   UNL     1      24.508  43.128  50.228  0.00  0.00    +0.000 A 
ENDBRANCH  18  21
ENDBRANCH   2  17
BRANCH   2  28
ATOM     28  C   UNL     1      24.415  37.502  45.964  0.00  0.00    +0.000 C 
ATOM     29  O   UNL     1      24.119  36.548  46.659  0.00  0.00    +0.000 OA
ATOM     30  OXT UNL     1      25.604  37.610  45.319  0.00  0.00    +0.000 OA
ENDBRANCH   2  28
TORSDOF 6
ENDMDL
MODEL 9
REMARK VINA RESULT:      -6.0      1.596      2.211
REMARK  Name = 320380
REMARK  6 active torsions:
REMARK  status: ('A' for Active; 'I' for Inactive)
REMARK    1  A    between atoms: C_3  and  O_5
REMARK    2  A    between atoms: O_5  and  C_8
REMARK    3  A    between atoms: C_14  and  C_15
REMARK    4  A    between atoms: CA_16  and  N_17
REMARK    5  A    between atoms: CA_16  and  C_18
REMARK    6  A    between atoms: C_19  and  C_23
REMARK                            x       y       z     vdW  Elec       q    Type
REMARK                         _______ _______ _______ _____ _____    ______ ____
ROOT
ATOM      1  C   UNL     1      20.653  41.933  43.218  0.00  0.00    +0.000 C 
ATOM      2  CA  UNL     1      19.312  41.875  43.281  0.00  0.00    +0.000 C 
ENDROOT
BRANCH   1   8
ATOM      3  C   UNL     1      23.947  40.929  45.691  0.00  0.00    +0.000 A 
ATOM      4  C   UNL     1      23.766  40.249  44.489  0.00  0.00    +0.000 A 
ATOM      5  C   UNL     1      22.924  41.737  46.199  0.00  0.00    +0.000 A 
ATOM      6  C   UNL     1      22.629  40.502  43.716  0.00  0.00    +0.000 A 
ATOM      7  C   UNL     1      21.797  42.002  45.417  0.00  0.00    +0.000 A 
ATOM      8  C   UNL     1      21.669  41.423  44.148  0.00  0.00    +0.000 A 
BRANCH   3   9
ATOM      9  O   UNL     1      25.166  40.797  46.321  0.00  0.00    +0.000 OA
BRANCH   9  12
ATOM     10 BR   UNL     1      23.580  39.513  48.636  0.00  0.00    +0.000 Br
ATOM     11  C   UNL     1      24.673  41.064  48.651  0.00  0.00    +0.000 A 
ATOM     12  C   UNL     1      25.357  41.491  47.507  0.00  0.00    +0.000 A 
ATOM     13  C   UNL     1      24.782  41.781  49.848  0.00  0.00    +0.000 A 
ATOM     14  C   UNL     1      26.227  42.589  47.609  0.00  0.00    +0.000 A 
ATOM     15  C   UNL     1      25.590  42.917  49.914  0.00  0.00    +0.000 A 
ATOM     16  C   UNL     1      26.323  43.313  48.799  0.00  0.00    +0.000 A 
ENDBRANCH   9  12
ENDBRANCH   3   9
ENDBRANCH   1   8
BRANCH   2  17
ATOM     17  N   UNL     1      18.541  41.168  44.188  0.00  0.00    +0.000 N 
ATOM     18  C   UNL     1      18.525  39.790  44.295  0.00  0.00    +0.000 C 
ATOM     19  O   UNL     1      19.201  39.033  43.608  0.00  0.00    +0.000 OA
ATOM     20  H   UNL     1      17.964  41.683  44.798  0.00  0.00    +0.000 HD
BRANCH  18  21
ATOM     21  C   UNL     1      17.508  39.193  45.199  0.00  0.00    +0.000 A 
ATOM     22  C   UNL     1      17.236  37.824  45.227  0.00  0.00    +0.000 A 
ATOM     23  C   UNL     1      16.869  40.030  46.125  0.00  0.00    +0.000 A 
ATOM     24  F   UNL     1      17.847  36.986  44.374  0.00  0.00    +0.000 F 
ATOM     25  C   UNL     1      16.361  37.287  46.170  0.00  0.00    +0.000 A 
ATOM     26  C   UNL     1      15.991  39.494  47.070  0.00  0.00    +0.000 A 
ATOM     27  C   UNL     1      15.743  38.121  47.096  0.00  0.00    +0.000 A 
ENDBRANCH  18  21
ENDBRANCH   2  17
BRANCH   2  28
ATOM     28  C   UNL     1      18.576  42.706  42.267  0.00  0.00    +0.000 C 
ATOM     29  O   UNL     1      18.874  43.834  41.921  0.00  0.00    +0.000 OA
ATOM     30  OXT UNL     1      17.519  42.027  41.753  0.00  0.00    +0.000 OA
ENDBRANCH   2  28
TORSDOF 6
ENDMDL
