MODEL 1
REMARK VINA RESULT:      -8.4      0.000      0.000
REMARK  Name = 319810
REMARK  6 active torsions:
REMARK  status: ('A' for Active; 'I' for Inactive)
REMARK    1  A    between atoms: C_3  and  O_5
REMARK    2  A    between atoms: O_5  and  C_8
REMARK    3  A    between atoms: C_14  and  C_15
REMARK    4  A    between atoms: CA_16  and  N_17
REMARK    5  A    between atoms: CA_16  and  C_18
REMARK    6  A    between atoms: C_19  and  C_23
REMARK                            x       y       z     vdW  Elec       q    Type
REMARK                         _______ _______ _______ _____ _____    ______ ____
ROOT
ATOM      1  C   UNL     1      20.266  42.407  43.516  0.00  0.00    +0.000 C 
ATOM      2  CA  UNL     1      19.003  41.982  43.354  0.00  0.00    +0.000 C 
ENDROOT
BRANCH   1   8
ATOM      3  C   UNL     1      22.529  41.259  46.919  0.00  0.00    +0.000 A 
ATOM      4  C   UNL     1      21.905  42.506  46.907  0.00  0.00    +0.000 A 
ATOM      5  C   UNL     1      22.627  40.520  45.737  0.00  0.00    +0.000 A 
ATOM      6  C   UNL     1      21.241  42.940  45.753  0.00  0.00    +0.000 A 
ATOM      7  C   UNL     1      21.948  40.944  44.592  0.00  0.00    +0.000 A 
ATOM      8  C   UNL     1      21.210  42.133  44.609  0.00  0.00    +0.000 A 
BRANCH   3   9
ATOM      9  O   UNL     1      23.005  40.792  48.126  0.00  0.00    +0.000 OA
BRANCH   9  12
ATOM     10 BR   UNL     1      25.805  40.661  46.823  0.00  0.00    +0.000 Br
ATOM     11  C   UNL     1      25.248  41.605  48.372  0.00  0.00    +0.000 A 
ATOM     12  C   UNL     1      23.918  41.581  48.809  0.00  0.00    +0.000 A 
ATOM     13  C   UNL     1      26.211  42.338  49.077  0.00  0.00    +0.000 A 
ATOM     14  C   UNL     1      23.553  42.378  49.906  0.00  0.00    +0.000 A 
ATOM     15  C   UNL     1      25.848  43.065  50.211  0.00  0.00    +0.000 A 
ATOM     16  C   UNL     1      24.517  43.096  50.618  0.00  0.00    +0.000 A 
ENDBRANCH   9  12
ENDBRANCH   3   9
ENDBRANCH   1   8
BRANCH   2  17
ATOM     17  N   UNL     1      18.359  41.023  44.125  0.00  0.00    +0.000 N 
ATOM     18  C   UNL     1      18.637  39.675  43.964  0.00  0.00    +0.000 C 
ATOM     19  O   UNL     1      19.363  39.230  43.083  0.00  0.00    +0.000 OA
ATOM     20  H   UNL     1      17.695  41.305  44.794  0.00  0.00    +0.000 HD
BRANCH  18  21
ATOM     21  C   UNL     1      17.897  38.715  44.821  0.00  0.00    +0.000 A 
ATOM     22  C   UNL     1      17.158  39.247  45.885  0.00  0.00    +0.000 A 
ATOM     23  C   UNL     1      17.844  37.342  44.550  0.00  0.00    +0.000 A 
ATOM     24  C   UNL     1      16.358  38.414  46.652  0.00  0.00    +0.000 A 
ATOM     25  C   UNL     1      17.028  36.514  45.332  0.00  0.00    +0.000 A 
ATOM     26  F   UNL     1      15.640  38.932  47.656  0.00  0.00    +0.000 F 
ATOM     27  C   UNL     1      16.280  37.054  46.380  0.00  0.00    +0.000 A 
ENDBRANCH  18  21
ENDBRANCH   2  17
BRANCH   2  28
ATOM     28  C   UNL     1      18.252  42.605  42.213  0.00  0.00    +0.000 C 
ATOM     29  O   UNL     1      18.487  43.698  41.727  0.00  0.00    +0.000 OA
ATOM     30  OXT UNL     1      17.253  41.800  41.780  0.00  0.00    +0.000 OA
ENDBRANCH   2  28
TORSDOF 6
ENDMDL
MODEL 2
REMARK VINA RESULT:      -7.0      1.900      2.261
REMARK  Name = 319810
REMARK  6 active torsions:
REMARK  status: ('A' for Active; 'I' for Inactive)
REMARK    1  A    between atoms: C_3  and  O_5
REMARK    2  A    between atoms: O_5  and  C_8
REMARK    3  A    between atoms: C_14  and  C_15
REMARK    4  A    between atoms: CA_16  and  N_17
REMARK    5  A    between atoms: CA_16  and  C_18
REMARK    6  A    between atoms: C_19  and  C_23
REMARK                            x       y       z     vdW  Elec       q    Type
REMARK                         _______ _______ _______ _____ _____    ______ ____
ROOT
ATOM      1  C   UNL     1      18.756  43.491  45.263  0.00  0.00    +0.000 C 
ATOM      2  CA  UNL     1      17.780  42.737  44.732  0.00  0.00    +0.000 C 
ENDROOT
BRANCH   1   8
ATOM      3  C   UNL     1      21.947  41.786  47.483  0.00  0.00    +0.000 A 
ATOM      4  C   UNL     1      20.677  41.847  48.056  0.00  0.00    +0.000 A 
ATOM      5  C   UNL     1      22.219  42.506  46.317  0.00  0.00    +0.000 A 
ATOM      6  C   UNL     1      19.639  42.498  47.377  0.00  0.00    +0.000 A 
ATOM      7  C   UNL     1      21.178  43.138  45.631  0.00  0.00    +0.000 A 
ATOM      8  C   UNL     1      19.873  43.095  46.134  0.00  0.00    +0.000 A 
BRANCH   3   9
ATOM      9  O   UNL     1      22.887  40.979  48.090  0.00  0.00    +0.000 OA
BRANCH   9  12
ATOM     10 BR   UNL     1      25.413  40.454  46.389  0.00  0.00    +0.000 Br
ATOM     11  C   UNL     1      25.243  41.419  48.014  0.00  0.00    +0.000 A 
ATOM     12  C   UNL     1      24.002  41.589  48.641  0.00  0.00    +0.000 A 
ATOM     13  C   UNL     1      26.402  41.965  48.579  0.00  0.00    +0.000 A 
ATOM     14  C   UNL     1      23.932  42.395  49.789  0.00  0.00    +0.000 A 
ATOM     15  C   UNL     1      26.327  42.700  49.763  0.00  0.00    +0.000 A 
ATOM     16  C   UNL     1      25.090  42.926  50.361  0.00  0.00    +0.000 A 
ENDBRANCH   9  12
ENDBRANCH   3   9
ENDBRANCH   1   8
BRANCH   2  17
ATOM     17  N   UNL     1      17.717  41.350  44.754  0.00  0.00    +0.000 N 
ATOM     18  C   UNL     1      16.911  40.688  45.666  0.00  0.00    +0.000 C 
ATOM     19  O   UNL     1      16.302  41.249  46.568  0.00  0.00    +0.000 OA
ATOM     20  H   UNL     1      18.252  40.830  44.111  0.00  0.00    +0.000 HD
BRANCH  18  21
ATOM     21  C   UNL     1      16.909  39.204  45.629  0.00  0.00    +0.000 A 
ATOM     22  C   UNL     1      17.655  38.589  44.614  0.00  0.00    +0.000 A 
ATOM     23  C   UNL     1      16.277  38.422  46.603  0.00  0.00    +0.000 A 
ATOM     24  C   UNL     1      17.781  37.209  44.592  0.00  0.00    +0.000 A 
ATOM     25  C   UNL     1      16.419  37.028  46.571  0.00  0.00    +0.000 A 
ATOM     26  F   UNL     1      18.510  36.630  43.631  0.00  0.00    +0.000 F 
ATOM     27  C   UNL     1      17.178  36.424  45.566  0.00  0.00    +0.000 A 
ENDBRANCH  18  21
ENDBRANCH   2  17
BRANCH   2  28
ATOM     28  C   UNL     1      16.683  43.493  44.041  0.00  0.00    +0.000 C 
ATOM     29  O   UNL     1      16.207  44.550  44.419  0.00  0.00    +0.000 OA
ATOM     30  OXT UNL     1      16.263  42.847  42.927  0.00  0.00    +0.000 OA
ENDBRANCH   2  28
TORSDOF 6
ENDMDL
MODEL 3
REMARK VINA RESULT:      -7.0      0.851      1.254
REMARK  Name = 319810
REMARK  6 active torsions:
REMARK  status: ('A' for Active; 'I' for Inactive)
REMARK    1  A    between atoms: C_3  and  O_5
REMARK    2  A    between atoms: O_5  and  C_8
REMARK    3  A    between atoms: C_14  and  C_15
REMARK    4  A    between atoms: CA_16  and  N_17
REMARK    5  A    between atoms: CA_16  and  C_18
REMARK    6  A    between atoms: C_19  and  C_23
REMARK                            x       y       z     vdW  Elec       q    Type
REMARK                         _______ _______ _______ _____ _____    ______ ____
ROOT
ATOM      1  C   UNL     1      20.803  41.932  43.672  0.00  0.00    +0.000 C 
ATOM      2  CA  UNL     1      19.482  41.790  43.482  0.00  0.00    +0.000 C 
ENDROOT
BRANCH   1   8
ATOM      3  C   UNL     1      23.577  40.759  46.663  0.00  0.00    +0.000 A 
ATOM      4  C   UNL     1      23.843  40.449  45.329  0.00  0.00    +0.000 A 
ATOM      5  C   UNL     1      22.306  41.208  47.031  0.00  0.00    +0.000 A 
ATOM      6  C   UNL     1      22.891  40.738  44.345  0.00  0.00    +0.000 A 
ATOM      7  C   UNL     1      21.363  41.515  46.046  0.00  0.00    +0.000 A 
ATOM      8  C   UNL     1      21.670  41.327  44.693  0.00  0.00    +0.000 A 
BRANCH   3   9
ATOM      9  O   UNL     1      24.609  40.633  47.569  0.00  0.00    +0.000 OA
BRANCH   9  12
ATOM     10 BR   UNL     1      27.518  41.494  48.162  0.00  0.00    +0.000 Br
ATOM     11  C   UNL     1      25.915  42.006  49.039  0.00  0.00    +0.000 A 
ATOM     12  C   UNL     1      24.664  41.542  48.614  0.00  0.00    +0.000 A 
ATOM     13  C   UNL     1      26.014  42.873  50.134  0.00  0.00    +0.000 A 
ATOM     14  C   UNL     1      23.511  42.035  49.247  0.00  0.00    +0.000 A 
ATOM     15  C   UNL     1      24.863  43.295  50.801  0.00  0.00    +0.000 A 
ATOM     16  C   UNL     1      23.611  42.887  50.349  0.00  0.00    +0.000 A 
ENDBRANCH   9  12
ENDBRANCH   3   9
ENDBRANCH   1   8
BRANCH   2  17
ATOM     17  N   UNL     1      18.658  40.876  44.126  0.00  0.00    +0.000 N 
ATOM     18  C   UNL     1      18.903  39.515  44.045  0.00  0.00    +0.000 C 
ATOM     19  O   UNL     1      19.766  39.021  43.331  0.00  0.00    +0.000 OA
ATOM     20  H   UNL     1      17.889  41.201  44.648  0.00  0.00    +0.000 HD
BRANCH  18  21
ATOM     21  C   UNL     1      17.968  38.607  44.755  0.00  0.00    +0.000 A 
ATOM     22  C   UNL     1      17.094  39.187  45.684  0.00  0.00    +0.000 A 
ATOM     23  C   UNL     1      17.873  37.239  44.467  0.00  0.00    +0.000 A 
ATOM     24  C   UNL     1      16.124  38.409  46.296  0.00  0.00    +0.000 A 
ATOM     25  C   UNL     1      16.885  36.467  45.091  0.00  0.00    +0.000 A 
ATOM     26  F   UNL     1      15.281  38.974  47.169  0.00  0.00    +0.000 F 
ATOM     27  C   UNL     1      16.006  37.057  46.002  0.00  0.00    +0.000 A 
ENDBRANCH  18  21
ENDBRANCH   2  17
BRANCH   2  28
ATOM     28  C   UNL     1      18.873  42.703  42.457  0.00  0.00    +0.000 C 
ATOM     29  O   UNL     1      19.314  43.792  42.132  0.00  0.00    +0.000 OA
ATOM     30  OXT UNL     1      17.746  42.172  41.928  0.00  0.00    +0.000 OA
ENDBRANCH   2  28
TORSDOF 6
ENDMDL
MODEL 4
REMARK VINA RESULT:      -6.3      1.588      2.225
REMARK  Name = 319810
REMARK  6 active torsions:
REMARK  status: ('A' for Active; 'I' for Inactive)
REMARK    1  A    between atoms: C_3  and  O_5
REMARK    2  A    between atoms: O_5  and  C_8
REMARK    3  A    between atoms: C_14  and  C_15
REMARK    4  A    between atoms: CA_16  and  N_17
REMARK    5  A    between atoms: CA_16  and  C_18
REMARK    6  A    between atoms: C_19  and  C_23
REMARK                            x       y       z     vdW  Elec       q    Type
REMARK                         _______ _______ _______ _____ _____    ______ ____
ROOT
ATOM      1  C   UNL     1      20.102  42.371  43.237  0.00  0.00    +0.000 C 
ATOM      2  CA  UNL     1      18.878  41.840  43.085  0.00  0.00    +0.000 C 
ENDROOT
BRANCH   1   8
ATOM      3  C   UNL     1      22.511  41.368  46.585  0.00  0.00    +0.000 A 
ATOM      4  C   UNL     1      21.874  42.609  46.553  0.00  0.00    +0.000 A 
ATOM      5  C   UNL     1      22.568  40.586  45.429  0.00  0.00    +0.000 A 
ATOM      6  C   UNL     1      21.161  42.994  45.412  0.00  0.00    +0.000 A 
ATOM      7  C   UNL     1      21.839  40.963  44.297  0.00  0.00    +0.000 A 
ATOM      8  C   UNL     1      21.092  42.146  44.300  0.00  0.00    +0.000 A 
BRANCH   3   9
ATOM      9  O   UNL     1      23.039  40.949  47.789  0.00  0.00    +0.000 OA
BRANCH   9  12
ATOM     10 BR   UNL     1      23.366  42.827  50.222  0.00  0.00    +0.000 Br
ATOM     11  C   UNL     1      24.698  42.096  49.086  0.00  0.00    +0.000 A 
ATOM     12  C   UNL     1      24.374  41.226  48.038  0.00  0.00    +0.000 A 
ATOM     13  C   UNL     1      26.032  42.451  49.324  0.00  0.00    +0.000 A 
ATOM     14  C   UNL     1      25.416  40.645  47.296  0.00  0.00    +0.000 A 
ATOM     15  C   UNL     1      27.051  41.925  48.529  0.00  0.00    +0.000 A 
ATOM     16  C   UNL     1      26.744  41.012  47.524  0.00  0.00    +0.000 A 
ENDBRANCH   9  12
ENDBRANCH   3   9
ENDBRANCH   1   8
BRANCH   2  17
ATOM     17  N   UNL     1      18.340  40.800  43.832  0.00  0.00    +0.000 N 
ATOM     18  C   UNL     1      17.354  41.038  44.776  0.00  0.00    +0.000 C 
ATOM     19  O   UNL     1      16.974  42.157  45.096  0.00  0.00    +0.000 OA
ATOM     20  H   UNL     1      18.665  39.882  43.689  0.00  0.00    +0.000 HD
BRANCH  18  21
ATOM     21  C   UNL     1      16.841  39.873  45.539  0.00  0.00    +0.000 A 
ATOM     22  C   UNL     1      16.904  38.621  44.913  0.00  0.00    +0.000 A 
ATOM     23  C   UNL     1      16.393  39.971  46.863  0.00  0.00    +0.000 A 
ATOM     24  C   UNL     1      16.543  37.481  45.615  0.00  0.00    +0.000 A 
ATOM     25  C   UNL     1      16.036  38.809  47.560  0.00  0.00    +0.000 A 
ATOM     26  F   UNL     1      16.622  36.287  45.017  0.00  0.00    +0.000 F 
ATOM     27  C   UNL     1      16.118  37.563  46.935  0.00  0.00    +0.000 A 
ENDBRANCH  18  21
ENDBRANCH   2  17
BRANCH   2  28
ATOM     28  C   UNL     1      18.048  42.433  41.983  0.00  0.00    +0.000 C 
ATOM     29  O   UNL     1      17.153  41.857  41.387  0.00  0.00    +0.000 OA
ATOM     30  OXT UNL     1      18.420  43.706  41.714  0.00  0.00    +0.000 OA
ENDBRANCH   2  28
TORSDOF 6
ENDMDL
MODEL 5
REMARK VINA RESULT:      -6.0      2.448      3.861
REMARK  Name = 319810
REMARK  6 active torsions:
REMARK  status: ('A' for Active; 'I' for Inactive)
REMARK    1  A    between atoms: C_3  and  O_5
REMARK    2  A    between atoms: O_5  and  C_8
REMARK    3  A    between atoms: C_14  and  C_15
REMARK    4  A    between atoms: CA_16  and  N_17
REMARK    5  A    between atoms: CA_16  and  C_18
REMARK    6  A    between atoms: C_19  and  C_23
REMARK                            x       y       z     vdW  Elec       q    Type
REMARK                         _______ _______ _______ _____ _____    ______ ____
ROOT
ATOM      1  C   UNL     1      20.797  38.831  44.124  0.00  0.00    +0.000 C 
ATOM      2  CA  UNL     1      19.586  39.281  44.489  0.00  0.00    +0.000 C 
ENDROOT
BRANCH   1   8
ATOM      3  C   UNL     1      24.368  40.230  45.943  0.00  0.00    +0.000 A 
ATOM      4  C   UNL     1      23.640  41.092  45.123  0.00  0.00    +0.000 A 
ATOM      5  C   UNL     1      24.072  38.864  45.953  0.00  0.00    +0.000 A 
ATOM      6  C   UNL     1      22.518  40.614  44.435  0.00  0.00    +0.000 A 
ATOM      7  C   UNL     1      22.940  38.393  45.282  0.00  0.00    +0.000 A 
ATOM      8  C   UNL     1      22.129  39.275  44.560  0.00  0.00    +0.000 A 
BRANCH   3   9
ATOM      9  O   UNL     1      25.346  40.781  46.745  0.00  0.00    +0.000 OA
BRANCH   9  12
ATOM     10 BR   UNL     1      27.746  41.540  48.539  0.00  0.00    +0.000 Br
ATOM     11  C   UNL     1      25.900  41.900  48.792  0.00  0.00    +0.000 A 
ATOM     12  C   UNL     1      24.939  41.508  47.852  0.00  0.00    +0.000 A 
ATOM     13  C   UNL     1      25.516  42.578  49.956  0.00  0.00    +0.000 A 
ATOM     14  C   UNL     1      23.603  41.890  48.054  0.00  0.00    +0.000 A 
ATOM     15  C   UNL     1      24.173  42.884  50.179  0.00  0.00    +0.000 A 
ATOM     16  C   UNL     1      23.218  42.552  49.222  0.00  0.00    +0.000 A 
ENDBRANCH   9  12
ENDBRANCH   3   9
ENDBRANCH   1   8
BRANCH   2  17
ATOM     17  N   UNL     1      19.324  40.176  45.518  0.00  0.00    +0.000 N 
ATOM     18  C   UNL     1      19.148  41.525  45.262  0.00  0.00    +0.000 C 
ATOM     19  O   UNL     1      19.317  42.037  44.162  0.00  0.00    +0.000 OA
ATOM     20  H   UNL     1      19.262  39.845  46.444  0.00  0.00    +0.000 HD
BRANCH  18  21
ATOM     21  C   UNL     1      18.882  42.415  46.420  0.00  0.00    +0.000 A 
ATOM     22  C   UNL     1      17.724  43.203  46.367  0.00  0.00    +0.000 A 
ATOM     23  C   UNL     1      19.681  42.423  47.570  0.00  0.00    +0.000 A 
ATOM     24  C   UNL     1      17.363  43.970  47.464  0.00  0.00    +0.000 A 
ATOM     25  C   UNL     1      19.300  43.200  48.672  0.00  0.00    +0.000 A 
ATOM     26  F   UNL     1      16.247  44.706  47.414  0.00  0.00    +0.000 F 
ATOM     27  C   UNL     1      18.136  43.969  48.619  0.00  0.00    +0.000 A 
ENDBRANCH  18  21
ENDBRANCH   2  17
BRANCH   2  28
ATOM     28  C   UNL     1      18.429  38.733  43.705  0.00  0.00    +0.000 C 
ATOM     29  O   UNL     1      17.675  39.390  43.007  0.00  0.00    +0.000 OA
ATOM     30  OXT UNL     1      18.307  37.395  43.873  0.00  0.00    +0.000 OA
ENDBRANCH   2  28
TORSDOF 6
ENDMDL
MODEL 6
REMARK VINA RESULT:      -5.8      1.745      2.192
REMARK  Name = 319810
REMARK  6 active torsions:
REMARK  status: ('A' for Active; 'I' for Inactive)
REMARK    1  A    between atoms: C_3  and  O_5
REMARK    2  A    between atoms: O_5  and  C_8
REMARK    3  A    between atoms: C_14  and  C_15
REMARK    4  A    between atoms: CA_16  and  N_17
REMARK    5  A    between atoms: CA_16  and  C_18
REMARK    6  A    between atoms: C_19  and  C_23
REMARK                            x       y       z     vdW  Elec       q    Type
REMARK                         _______ _______ _______ _____ _____    ______ ____
ROOT
ATOM      1  C   UNL     1      18.865  43.516  45.267  0.00  0.00    +0.000 C 
ATOM      2  CA  UNL     1      17.791  42.794  44.909  0.00  0.00    +0.000 C 
ENDROOT
BRANCH   1   8
ATOM      3  C   UNL     1      21.913  41.936  47.763  0.00  0.00    +0.000 A 
ATOM      4  C   UNL     1      20.659  42.208  48.310  0.00  0.00    +0.000 A 
ATOM      5  C   UNL     1      22.236  42.420  46.492  0.00  0.00    +0.000 A 
ATOM      6  C   UNL     1      19.677  42.823  47.524  0.00  0.00    +0.000 A 
ATOM      7  C   UNL     1      21.249  43.016  45.702  0.00  0.00    +0.000 A 
ATOM      8  C   UNL     1      19.950  43.176  46.198  0.00  0.00    +0.000 A 
BRANCH   3   9
ATOM      9  O   UNL     1      22.783  41.164  48.504  0.00  0.00    +0.000 OA
BRANCH   9  12
ATOM     10 BR   UNL     1      24.219  43.010  50.525  0.00  0.00    +0.000 Br
ATOM     11  C   UNL     1      24.930  42.098  49.021  0.00  0.00    +0.000 A 
ATOM     12  C   UNL     1      24.136  41.266  48.222  0.00  0.00    +0.000 A 
ATOM     13  C   UNL     1      26.288  42.277  48.725  0.00  0.00    +0.000 A 
ATOM     14  C   UNL     1      24.747  40.545  47.183  0.00  0.00    +0.000 A 
ATOM     15  C   UNL     1      26.863  41.613  47.642  0.00  0.00    +0.000 A 
ATOM     16  C   UNL     1      26.097  40.737  46.879  0.00  0.00    +0.000 A 
ENDBRANCH   9  12
ENDBRANCH   3   9
ENDBRANCH   1   8
BRANCH   2  17
ATOM     17  N   UNL     1      17.562  41.460  45.223  0.00  0.00    +0.000 N 
ATOM     18  C   UNL     1      18.129  40.444  44.472  0.00  0.00    +0.000 C 
ATOM     19  O   UNL     1      18.761  40.632  43.440  0.00  0.00    +0.000 OA
ATOM     20  H   UNL     1      16.988  41.235  45.991  0.00  0.00    +0.000 HD
BRANCH  18  21
ATOM     21  C   UNL     1      17.825  39.046  44.868  0.00  0.00    +0.000 A 
ATOM     22  C   UNL     1      17.144  38.859  46.079  0.00  0.00    +0.000 A 
ATOM     23  C   UNL     1      18.110  37.946  44.049  0.00  0.00    +0.000 A 
ATOM     24  C   UNL     1      16.736  37.587  46.449  0.00  0.00    +0.000 A 
ATOM     25  C   UNL     1      17.687  36.668  44.436  0.00  0.00    +0.000 A 
ATOM     26  F   UNL     1      16.070  37.418  47.597  0.00  0.00    +0.000 F 
ATOM     27  C   UNL     1      16.992  36.492  45.634  0.00  0.00    +0.000 A 
ENDBRANCH  18  21
ENDBRANCH   2  17
BRANCH   2  28
ATOM     28  C   UNL     1      16.772  43.517  44.077  0.00  0.00    +0.000 C 
ATOM     29  O   UNL     1      16.253  44.583  44.366  0.00  0.00    +0.000 OA
ATOM     30  OXT UNL     1      16.480  42.833  42.946  0.00  0.00    +0.000 OA
ENDBRANCH   2  28
TORSDOF 6
ENDMDL
