MODEL 1
REMARK VINA RESULT:      -7.8      0.000      0.000
REMARK  Name = 321366
REMARK  7 active torsions:
REMARK  status: ('A' for Active; 'I' for Inactive)
REMARK    1  A    between atoms: C_3  and  O_5
REMARK    2  A    between atoms: O_5  and  C_8
REMARK    3  A    between atoms: C_14  and  C_15
REMARK    4  A    between atoms: CA_16  and  N_17
REMARK    5  A    between atoms: CA_16  and  C_18
REMARK    6  A    between atoms: C_19  and  C_23
REMARK    7  A    between atoms: C_23  and  C_24
REMARK                            x       y       z     vdW  Elec       q    Type
REMARK                         _______ _______ _______ _____ _____    ______ ____
ROOT
ATOM      1  C   UNL     1      25.493  40.642  46.680  0.00  0.00    +0.000 C 
ATOM      2  CA  UNL     1      25.271  41.661  47.527  0.00  0.00    +0.000 C 
ENDROOT
BRANCH   1   8
ATOM      3  C   UNL     1      22.385  39.321  44.140  0.00  0.00    +0.000 A 
ATOM      4  C   UNL     1      22.798  38.506  45.196  0.00  0.00    +0.000 A 
ATOM      5  C   UNL     1      23.173  40.407  43.752  0.00  0.00    +0.000 A 
ATOM      6  C   UNL     1      23.910  38.870  45.964  0.00  0.00    +0.000 A 
ATOM      7  C   UNL     1      24.264  40.788  44.535  0.00  0.00    +0.000 A 
ATOM      8  C   UNL     1      24.603  40.050  45.676  0.00  0.00    +0.000 A 
BRANCH   3   9
ATOM      9  O   UNL     1      21.184  39.017  43.536  0.00  0.00    +0.000 OA
BRANCH   9  12
ATOM     10 BR   UNL     1      18.382  37.800  43.932  0.00  0.00    +0.000 Br
ATOM     11  C   UNL     1      18.866  39.608  43.617  0.00  0.00    +0.000 A 
ATOM     12  C   UNL     1      20.205  39.997  43.486  0.00  0.00    +0.000 A 
ATOM     13  C   UNL     1      17.839  40.555  43.521  0.00  0.00    +0.000 A 
ATOM     14  C   UNL     1      20.500  41.363  43.347  0.00  0.00    +0.000 A 
ATOM     15  C   UNL     1      18.145  41.900  43.308  0.00  0.00    +0.000 A 
ATOM     16  C   UNL     1      19.474  42.305  43.233  0.00  0.00    +0.000 A 
ENDBRANCH   9  12
ENDBRANCH   3   9
ENDBRANCH   1   8
BRANCH   2  17
ATOM     17  N   UNL     1      24.129  42.440  47.541  0.00  0.00    +0.000 N 
ATOM     18  C   UNL     1      22.919  41.913  47.980  0.00  0.00    +0.000 C 
ATOM     19  O   UNL     1      22.809  40.779  48.441  0.00  0.00    +0.000 OA
ATOM     20  H   UNL     1      24.173  43.375  47.237  0.00  0.00    +0.000 HD
BRANCH  18  21
ATOM     21  C   UNL     1      21.712  42.811  47.731  0.00  0.00    +0.000 C 
BRANCH  21  22
ATOM     22  C   UNL     1      20.421  42.080  47.454  0.00  0.00    +0.000 A 
ATOM     23  C   UNL     1      20.455  40.713  47.130  0.00  0.00    +0.000 A 
ATOM     24  C   UNL     1      19.174  42.705  47.601  0.00  0.00    +0.000 A 
ATOM     25  C   UNL     1      19.272  40.000  46.918  0.00  0.00    +0.000 A 
ATOM     26  C   UNL     1      17.991  41.994  47.387  0.00  0.00    +0.000 A 
ATOM     27  C   UNL     1      18.045  40.647  47.042  0.00  0.00    +0.000 A 
ATOM     28 BR   UNL     1      16.443  39.685  46.753  0.00  0.00    +0.000 Br
ENDBRANCH  21  22
ENDBRANCH  18  21
ENDBRANCH   2  17
BRANCH   2  29
ATOM     29  C   UNL     1      26.314  41.871  48.578  0.00  0.00    +0.000 C 
ATOM     30  O   UNL     1      27.389  41.301  48.619  0.00  0.00    +0.000 OA
ATOM     31  OXT UNL     1      25.901  42.752  49.520  0.00  0.00    +0.000 OA
ENDBRANCH   2  29
TORSDOF 7
ENDMDL
MODEL 2
REMARK VINA RESULT:      -7.1      3.210      6.750
REMARK  Name = 321366
REMARK  7 active torsions:
REMARK  status: ('A' for Active; 'I' for Inactive)
REMARK    1  A    between atoms: C_3  and  O_5
REMARK    2  A    between atoms: O_5  and  C_8
REMARK    3  A    between atoms: C_14  and  C_15
REMARK    4  A    between atoms: CA_16  and  N_17
REMARK    5  A    between atoms: CA_16  and  C_18
REMARK    6  A    between atoms: C_19  and  C_23
REMARK    7  A    between atoms: C_23  and  C_24
REMARK                            x       y       z     vdW  Elec       q    Type
REMARK                         _______ _______ _______ _____ _____    ______ ____
ROOT
ATOM      1  C   UNL     1      20.292  42.278  43.414  0.00  0.00    +0.000 C 
ATOM      2  CA  UNL     1      18.962  42.092  43.388  0.00  0.00    +0.000 C 
ENDROOT
BRANCH   1   8
ATOM      3  C   UNL     1      22.480  41.133  46.842  0.00  0.00    +0.000 A 
ATOM      4  C   UNL     1      22.119  42.471  46.678  0.00  0.00    +0.000 A 
ATOM      5  C   UNL     1      22.382  40.249  45.765  0.00  0.00    +0.000 A 
ATOM      6  C   UNL     1      21.509  42.888  45.489  0.00  0.00    +0.000 A 
ATOM      7  C   UNL     1      21.748  40.657  44.589  0.00  0.00    +0.000 A 
ATOM      8  C   UNL     1      21.260  41.964  44.469  0.00  0.00    +0.000 A 
BRANCH   3   9
ATOM      9  O   UNL     1      22.904  40.739  48.094  0.00  0.00    +0.000 OA
BRANCH   9  12
ATOM     10 BR   UNL     1      25.648  40.613  46.700  0.00  0.00    +0.000 Br
ATOM     11  C   UNL     1      25.145  41.561  48.266  0.00  0.00    +0.000 A 
ATOM     12  C   UNL     1      23.833  41.529  48.753  0.00  0.00    +0.000 A 
ATOM     13  C   UNL     1      26.131  42.302  48.929  0.00  0.00    +0.000 A 
ATOM     14  C   UNL     1      23.506  42.326  49.863  0.00  0.00    +0.000 A 
ATOM     15  C   UNL     1      25.807  43.030  50.075  0.00  0.00    +0.000 A 
ATOM     16  C   UNL     1      24.493  43.052  50.534  0.00  0.00    +0.000 A 
ENDBRANCH   9  12
ENDBRANCH   3   9
ENDBRANCH   1   8
BRANCH   2  17
ATOM     17  N   UNL     1      18.237  41.447  44.373  0.00  0.00    +0.000 N 
ATOM     18  C   UNL     1      17.873  42.118  45.536  0.00  0.00    +0.000 C 
ATOM     19  O   UNL     1      18.101  43.311  45.722  0.00  0.00    +0.000 OA
ATOM     20  H   UNL     1      17.977  40.506  44.249  0.00  0.00    +0.000 HD
BRANCH  18  21
ATOM     21  C   UNL     1      17.277  41.224  46.619  0.00  0.00    +0.000 C 
BRANCH  21  22
ATOM     22  C   UNL     1      17.152  39.768  46.244  0.00  0.00    +0.000 A 
ATOM     23  C   UNL     1      15.961  39.078  46.531  0.00  0.00    +0.000 A 
ATOM     24  C   UNL     1      18.160  39.101  45.532  0.00  0.00    +0.000 A 
ATOM     25  C   UNL     1      15.801  37.743  46.151  0.00  0.00    +0.000 A 
ATOM     26  C   UNL     1      18.001  37.766  45.154  0.00  0.00    +0.000 A 
ATOM     27  C   UNL     1      16.824  37.092  45.469  0.00  0.00    +0.000 A 
ATOM     28 BR   UNL     1      16.610  35.285  44.955  0.00  0.00    +0.000 Br
ENDBRANCH  21  22
ENDBRANCH  18  21
ENDBRANCH   2  17
BRANCH   2  29
ATOM     29  C   UNL     1      18.239  42.729  42.245  0.00  0.00    +0.000 C 
ATOM     30  O   UNL     1      18.482  43.834  41.793  0.00  0.00    +0.000 OA
ATOM     31  OXT UNL     1      17.237  41.942  41.788  0.00  0.00    +0.000 OA
ENDBRANCH   2  29
TORSDOF 7
ENDMDL
MODEL 3
REMARK VINA RESULT:      -6.2      1.973      3.147
REMARK  Name = 321366
REMARK  7 active torsions:
REMARK  status: ('A' for Active; 'I' for Inactive)
REMARK    1  A    between atoms: C_3  and  O_5
REMARK    2  A    between atoms: O_5  and  C_8
REMARK    3  A    between atoms: C_14  and  C_15
REMARK    4  A    between atoms: CA_16  and  N_17
REMARK    5  A    between atoms: CA_16  and  C_18
REMARK    6  A    between atoms: C_19  and  C_23
REMARK    7  A    between atoms: C_23  and  C_24
REMARK                            x       y       z     vdW  Elec       q    Type
REMARK                         _______ _______ _______ _____ _____    ______ ____
ROOT
ATOM      1  C   UNL     1      23.457  40.259  44.607  0.00  0.00    +0.000 C 
ATOM      2  CA  UNL     1      23.797  41.001  45.673  0.00  0.00    +0.000 C 
ENDROOT
BRANCH   1   8
ATOM      3  C   UNL     1      19.378  39.775  43.616  0.00  0.00    +0.000 A 
ATOM      4  C   UNL     1      20.088  38.692  44.137  0.00  0.00    +0.000 A 
ATOM      5  C   UNL     1      20.066  40.901  43.156  0.00  0.00    +0.000 A 
ATOM      6  C   UNL     1      21.468  38.799  44.347  0.00  0.00    +0.000 A 
ATOM      7  C   UNL     1      21.437  41.020  43.393  0.00  0.00    +0.000 A 
ATOM      8  C   UNL     1      22.132  39.990  44.039  0.00  0.00    +0.000 A 
BRANCH   3   9
ATOM      9  O   UNL     1      18.002  39.684  43.602  0.00  0.00    +0.000 OA
BRANCH   9  12
ATOM     10 BR   UNL     1      17.555  36.667  44.027  0.00  0.00    +0.000 Br
ATOM     11  C   UNL     1      17.034  38.120  45.132  0.00  0.00    +0.000 A 
ATOM     12  C   UNL     1      17.346  39.444  44.798  0.00  0.00    +0.000 A 
ATOM     13  C   UNL     1      16.326  37.831  46.305  0.00  0.00    +0.000 A 
ATOM     14  C   UNL     1      17.013  40.464  45.705  0.00  0.00    +0.000 A 
ATOM     15  C   UNL     1      15.936  38.864  47.160  0.00  0.00    +0.000 A 
ATOM     16  C   UNL     1      16.290  40.177  46.866  0.00  0.00    +0.000 A 
ENDBRANCH   9  12
ENDBRANCH   3   9
ENDBRANCH   1   8
BRANCH   2  17
ATOM     17  N   UNL     1      22.916  41.765  46.416  0.00  0.00    +0.000 N 
ATOM     18  C   UNL     1      22.619  41.421  47.732  0.00  0.00    +0.000 C 
ATOM     19  O   UNL     1      23.163  40.490  48.321  0.00  0.00    +0.000 OA
ATOM     20  H   UNL     1      22.495  42.557  46.012  0.00  0.00    +0.000 HD
BRANCH  18  21
ATOM     21  C   UNL     1      21.471  42.216  48.347  0.00  0.00    +0.000 C 
BRANCH  21  22
ATOM     22  C   UNL     1      20.351  42.557  47.396  0.00  0.00    +0.000 A 
ATOM     23  C   UNL     1      19.042  42.697  47.888  0.00  0.00    +0.000 A 
ATOM     24  C   UNL     1      20.592  42.829  46.041  0.00  0.00    +0.000 A 
ATOM     25  C   UNL     1      17.994  43.060  47.038  0.00  0.00    +0.000 A 
ATOM     26  C   UNL     1      19.545  43.190  45.190  0.00  0.00    +0.000 A 
ATOM     27  C   UNL     1      18.250  43.299  45.691  0.00  0.00    +0.000 A 
ATOM     28 BR   UNL     1      16.834  43.789  44.538  0.00  0.00    +0.000 Br
ENDBRANCH  21  22
ENDBRANCH  18  21
ENDBRANCH   2  17
BRANCH   2  29
ATOM     29  C   UNL     1      25.221  40.888  46.116  0.00  0.00    +0.000 C 
ATOM     30  O   UNL     1      25.871  41.790  46.613  0.00  0.00    +0.000 OA
ATOM     31  OXT UNL     1      25.727  39.660  45.856  0.00  0.00    +0.000 OA
ENDBRANCH   2  29
TORSDOF 7
ENDMDL
MODEL 4
REMARK VINA RESULT:      -6.0      1.725      3.984
REMARK  Name = 321366
REMARK  7 active torsions:
REMARK  status: ('A' for Active; 'I' for Inactive)
REMARK    1  A    between atoms: C_3  and  O_5
REMARK    2  A    between atoms: O_5  and  C_8
REMARK    3  A    between atoms: C_14  and  C_15
REMARK    4  A    between atoms: CA_16  and  N_17
REMARK    5  A    between atoms: CA_16  and  C_18
REMARK    6  A    between atoms: C_19  and  C_23
REMARK    7  A    between atoms: C_23  and  C_24
REMARK                            x       y       z     vdW  Elec       q    Type
REMARK                         _______ _______ _______ _____ _____    ______ ____
ROOT
ATOM      1  C   UNL     1      22.685  42.500  49.215  0.00  0.00    +0.000 C 
ATOM      2  CA  UNL     1      23.927  41.996  49.143  0.00  0.00    +0.000 C 
ENDROOT
BRANCH   1   8
ATOM      3  C   UNL     1      19.127  41.433  47.201  0.00  0.00    +0.000 A 
ATOM      4  C   UNL     1      20.314  40.771  46.887  0.00  0.00    +0.000 A 
ATOM      5  C   UNL     1      19.166  42.616  47.943  0.00  0.00    +0.000 A 
ATOM      6  C   UNL     1      21.522  41.200  47.450  0.00  0.00    +0.000 A 
ATOM      7  C   UNL     1      20.365  43.028  48.528  0.00  0.00    +0.000 A 
ATOM      8  C   UNL     1      21.537  42.289  48.326  0.00  0.00    +0.000 A 
BRANCH   3   9
ATOM      9  O   UNL     1      17.948  40.861  46.771  0.00  0.00    +0.000 OA
BRANCH   9  12
ATOM     10 BR   UNL     1      16.546  38.308  45.770  0.00  0.00    +0.000 Br
ATOM     11  C   UNL     1      16.994  39.881  44.807  0.00  0.00    +0.000 A 
ATOM     12  C   UNL     1      17.613  40.972  45.430  0.00  0.00    +0.000 A 
ATOM     13  C   UNL     1      16.683  39.926  43.443  0.00  0.00    +0.000 A 
ATOM     14  C   UNL     1      17.833  42.140  44.683  0.00  0.00    +0.000 A 
ATOM     15  C   UNL     1      16.976  41.068  42.695  0.00  0.00    +0.000 A 
ATOM     16  C   UNL     1      17.539  42.178  43.317  0.00  0.00    +0.000 A 
ENDBRANCH   9  12
ENDBRANCH   3   9
ENDBRANCH   1   8
BRANCH   2  17
ATOM     17  N   UNL     1      24.347  41.060  48.218  0.00  0.00    +0.000 N 
ATOM     18  C   UNL     1      25.295  41.393  47.255  0.00  0.00    +0.000 C 
ATOM     19  O   UNL     1      25.857  42.485  47.217  0.00  0.00    +0.000 OA
ATOM     20  H   UNL     1      23.972  40.150  48.240  0.00  0.00    +0.000 HD
BRANCH  18  21
ATOM     21  C   UNL     1      25.492  40.337  46.173  0.00  0.00    +0.000 C 
BRANCH  21  22
ATOM     22  C   UNL     1      24.262  40.022  45.359  0.00  0.00    +0.000 A 
ATOM     23  C   UNL     1      23.677  38.747  45.452  0.00  0.00    +0.000 A 
ATOM     24  C   UNL     1      23.626  40.997  44.577  0.00  0.00    +0.000 A 
ATOM     25  C   UNL     1      22.508  38.445  44.747  0.00  0.00    +0.000 A 
ATOM     26  C   UNL     1      22.459  40.695  43.870  0.00  0.00    +0.000 A 
ATOM     27  C   UNL     1      21.909  39.419  43.955  0.00  0.00    +0.000 A 
ATOM     28 BR   UNL     1      20.329  39.012  42.999  0.00  0.00    +0.000 Br
ENDBRANCH  21  22
ENDBRANCH  18  21
ENDBRANCH   2  17
BRANCH   2  29
ATOM     29  C   UNL     1      24.924  42.591  50.087  0.00  0.00    +0.000 C 
ATOM     30  O   UNL     1      26.102  42.772  49.836  0.00  0.00    +0.000 OA
ATOM     31  OXT UNL     1      24.367  42.869  51.290  0.00  0.00    +0.000 OA
ENDBRANCH   2  29
TORSDOF 7
ENDMDL
MODEL 5
REMARK VINA RESULT:      -5.9      2.069      4.379
REMARK  Name = 321366
REMARK  7 active torsions:
REMARK  status: ('A' for Active; 'I' for Inactive)
REMARK    1  A    between atoms: C_3  and  O_5
REMARK    2  A    between atoms: O_5  and  C_8
REMARK    3  A    between atoms: C_14  and  C_15
REMARK    4  A    between atoms: CA_16  and  N_17
REMARK    5  A    between atoms: CA_16  and  C_18
REMARK    6  A    between atoms: C_19  and  C_23
REMARK    7  A    between atoms: C_23  and  C_24
REMARK                            x       y       z     vdW  Elec       q    Type
REMARK                         _______ _______ _______ _____ _____    ______ ____
ROOT
ATOM      1  C   UNL     1      23.809  41.906  47.414  0.00  0.00    +0.000 C 
ATOM      2  CA  UNL     1      24.266  40.787  46.830  0.00  0.00    +0.000 C 
ENDROOT
BRANCH   1   8
ATOM      3  C   UNL     1      19.667  42.741  47.494  0.00  0.00    +0.000 A 
ATOM      4  C   UNL     1      20.366  42.863  46.292  0.00  0.00    +0.000 A 
ATOM      5  C   UNL     1      20.368  42.634  48.698  0.00  0.00    +0.000 A 
ATOM      6  C   UNL     1      21.758  42.717  46.276  0.00  0.00    +0.000 A 
ATOM      7  C   UNL     1      21.754  42.459  48.680  0.00  0.00    +0.000 A 
ATOM      8  C   UNL     1      22.446  42.446  47.463  0.00  0.00    +0.000 A 
BRANCH   3   9
ATOM      9  O   UNL     1      18.291  42.708  47.427  0.00  0.00    +0.000 OA
BRANCH   9  12
ATOM     10 BR   UNL     1      16.647  43.318  44.896  0.00  0.00    +0.000 Br
ATOM     11  C   UNL     1      16.867  41.669  45.809  0.00  0.00    +0.000 A 
ATOM     12  C   UNL     1      17.682  41.561  46.943  0.00  0.00    +0.000 A 
ATOM     13  C   UNL     1      16.189  40.548  45.313  0.00  0.00    +0.000 A 
ATOM     14  C   UNL     1      17.875  40.294  47.516  0.00  0.00    +0.000 A 
ATOM     15  C   UNL     1      16.333  39.309  45.938  0.00  0.00    +0.000 A 
ATOM     16  C   UNL     1      17.184  39.180  47.031  0.00  0.00    +0.000 A 
ENDBRANCH   9  12
ENDBRANCH   3   9
ENDBRANCH   1   8
BRANCH   2  17
ATOM     17  N   UNL     1      23.473  39.839  46.212  0.00  0.00    +0.000 N 
ATOM     18  C   UNL     1      23.274  39.872  44.836  0.00  0.00    +0.000 C 
ATOM     19  O   UNL     1      23.836  40.677  44.096  0.00  0.00    +0.000 OA
ATOM     20  H   UNL     1      23.045  39.135  46.751  0.00  0.00    +0.000 HD
BRANCH  18  21
ATOM     21  C   UNL     1      22.206  38.908  44.329  0.00  0.00    +0.000 C 
BRANCH  21  22
ATOM     22  C   UNL     1      20.972  39.566  43.764  0.00  0.00    +0.000 A 
ATOM     23  C   UNL     1      19.757  38.859  43.744  0.00  0.00    +0.000 A 
ATOM     24  C   UNL     1      20.978  40.903  43.339  0.00  0.00    +0.000 A 
ATOM     25  C   UNL     1      18.588  39.462  43.272  0.00  0.00    +0.000 A 
ATOM     26  C   UNL     1      19.810  41.505  42.864  0.00  0.00    +0.000 A 
ATOM     27  C   UNL     1      18.622  40.781  42.828  0.00  0.00    +0.000 A 
ATOM     28 BR   UNL     1      17.042  41.597  42.187  0.00  0.00    +0.000 Br
ENDBRANCH  21  22
ENDBRANCH  18  21
ENDBRANCH   2  17
BRANCH   2  29
ATOM     29  C   UNL     1      25.754  40.643  46.779  0.00  0.00    +0.000 C 
ATOM     30  O   UNL     1      26.368  40.039  45.918  0.00  0.00    +0.000 OA
ATOM     31  OXT UNL     1      26.349  41.235  47.842  0.00  0.00    +0.000 OA
ENDBRANCH   2  29
TORSDOF 7
ENDMDL
MODEL 6
REMARK VINA RESULT:      -5.4      2.096      4.250
REMARK  Name = 321366
REMARK  7 active torsions:
REMARK  status: ('A' for Active; 'I' for Inactive)
REMARK    1  A    between atoms: C_3  and  O_5
REMARK    2  A    between atoms: O_5  and  C_8
REMARK    3  A    between atoms: C_14  and  C_15
REMARK    4  A    between atoms: CA_16  and  N_17
REMARK    5  A    between atoms: CA_16  and  C_18
REMARK    6  A    between atoms: C_19  and  C_23
REMARK    7  A    between atoms: C_23  and  C_24
REMARK                            x       y       z     vdW  Elec       q    Type
REMARK                         _______ _______ _______ _____ _____    ______ ____
ROOT
ATOM      1  C   UNL     1      22.816  42.676  49.297  0.00  0.00    +0.000 C 
ATOM      2  CA  UNL     1      24.057  42.163  49.314  0.00  0.00    +0.000 C 
ENDROOT
BRANCH   1   8
ATOM      3  C   UNL     1      19.663  42.738  46.485  0.00  0.00    +0.000 A 
ATOM      4  C   UNL     1      19.363  42.696  47.848  0.00  0.00    +0.000 A 
ATOM      5  C   UNL     1      20.963  42.468  46.051  0.00  0.00    +0.000 A 
ATOM      6  C   UNL     1      20.392  42.543  48.784  0.00  0.00    +0.000 A 
ATOM      7  C   UNL     1      21.994  42.346  46.985  0.00  0.00    +0.000 A 
ATOM      8  C   UNL     1      21.718  42.437  48.355  0.00  0.00    +0.000 A 
BRANCH   3   9
ATOM      9  O   UNL     1      18.642  43.073  45.621  0.00  0.00    +0.000 OA
BRANCH   9  12
ATOM     10 BR   UNL     1      19.337  43.242  42.625  0.00  0.00    +0.000 Br
ATOM     11  C   UNL     1      18.207  42.009  43.523  0.00  0.00    +0.000 A 
ATOM     12  C   UNL     1      18.021  42.059  44.910  0.00  0.00    +0.000 A 
ATOM     13  C   UNL     1      17.559  41.034  42.755  0.00  0.00    +0.000 A 
ATOM     14  C   UNL     1      17.246  41.061  45.523  0.00  0.00    +0.000 A 
ATOM     15  C   UNL     1      16.732  40.093  43.370  0.00  0.00    +0.000 A 
ATOM     16  C   UNL     1      16.586  40.099  44.754  0.00  0.00    +0.000 A 
ENDBRANCH   9  12
ENDBRANCH   3   9
ENDBRANCH   1   8
BRANCH   2  17
ATOM     17  N   UNL     1      24.520  41.190  48.448  0.00  0.00    +0.000 N 
ATOM     18  C   UNL     1      25.502  41.489  47.508  0.00  0.00    +0.000 C 
ATOM     19  O   UNL     1      26.055  42.585  47.442  0.00  0.00    +0.000 OA
ATOM     20  H   UNL     1      24.153  40.278  48.497  0.00  0.00    +0.000 HD
BRANCH  18  21
ATOM     21  C   UNL     1      25.750  40.388  46.483  0.00  0.00    +0.000 C 
BRANCH  21  22
ATOM     22  C   UNL     1      24.562  40.043  45.619  0.00  0.00    +0.000 A 
ATOM     23  C   UNL     1      23.792  38.907  45.921  0.00  0.00    +0.000 A 
ATOM     24  C   UNL     1      24.147  40.878  44.571  0.00  0.00    +0.000 A 
ATOM     25  C   UNL     1      22.658  38.593  45.167  0.00  0.00    +0.000 A 
ATOM     26  C   UNL     1      23.015  40.563  43.816  0.00  0.00    +0.000 A 
ATOM     27  C   UNL     1      22.278  39.420  44.114  0.00  0.00    +0.000 A 
ATOM     28 BR   UNL     1      20.746  38.995  43.091  0.00  0.00    +0.000 Br
ENDBRANCH  21  22
ENDBRANCH  18  21
ENDBRANCH   2  17
BRANCH   2  29
ATOM     29  C   UNL     1      25.005  42.787  50.289  0.00  0.00    +0.000 C 
ATOM     30  O   UNL     1      26.180  43.019  50.070  0.00  0.00    +0.000 OA
ATOM     31  OXT UNL     1      24.406  43.028  51.479  0.00  0.00    +0.000 OA
ENDBRANCH   2  29
TORSDOF 7
ENDMDL
MODEL 7
REMARK VINA RESULT:      -5.4      2.132      4.053
REMARK  Name = 321366
REMARK  7 active torsions:
REMARK  status: ('A' for Active; 'I' for Inactive)
REMARK    1  A    between atoms: C_3  and  O_5
REMARK    2  A    between atoms: O_5  and  C_8
REMARK    3  A    between atoms: C_14  and  C_15
REMARK    4  A    between atoms: CA_16  and  N_17
REMARK    5  A    between atoms: CA_16  and  C_18
REMARK    6  A    between atoms: C_19  and  C_23
REMARK    7  A    between atoms: C_23  and  C_24
REMARK                            x       y       z     vdW  Elec       q    Type
REMARK                         _______ _______ _______ _____ _____    ______ ____
ROOT
ATOM      1  C   UNL     1      22.976  41.478  47.302  0.00  0.00    +0.000 C 
ATOM      2  CA  UNL     1      23.357  40.317  46.744  0.00  0.00    +0.000 C 
ENDROOT
BRANCH   1   8
ATOM      3  C   UNL     1      19.390  43.322  46.039  0.00  0.00    +0.000 A 
ATOM      4  C   UNL     1      20.571  43.578  45.342  0.00  0.00    +0.000 A 
ATOM      5  C   UNL     1      19.441  42.711  47.295  0.00  0.00    +0.000 A 
ATOM      6  C   UNL     1      21.788  43.079  45.825  0.00  0.00    +0.000 A 
ATOM      7  C   UNL     1      20.649  42.188  47.762  0.00  0.00    +0.000 A 
ATOM      8  C   UNL     1      21.817  42.324  47.001  0.00  0.00    +0.000 A 
BRANCH   3   9
ATOM      9  O   UNL     1      18.204  43.673  45.429  0.00  0.00    +0.000 OA
BRANCH   9  12
ATOM     10 BR   UNL     1      16.202  41.636  46.580  0.00  0.00    +0.000 Br
ATOM     11  C   UNL     1      16.804  41.840  44.792  0.00  0.00    +0.000 A 
ATOM     12  C   UNL     1      17.707  42.848  44.432  0.00  0.00    +0.000 A 
ATOM     13  C   UNL     1      16.315  40.949  43.829  0.00  0.00    +0.000 A 
ATOM     14  C   UNL     1      18.040  43.003  43.077  0.00  0.00    +0.000 A 
ATOM     15  C   UNL     1      16.713  41.069  42.497  0.00  0.00    +0.000 A 
ATOM     16  C   UNL     1      17.565  42.103  42.120  0.00  0.00    +0.000 A 
ENDBRANCH   9  12
ENDBRANCH   3   9
ENDBRANCH   1   8
BRANCH   2  17
ATOM     17  N   UNL     1      22.631  39.623  45.795  0.00  0.00    +0.000 N 
ATOM     18  C   UNL     1      22.661  40.012  44.459  0.00  0.00    +0.000 C 
ATOM     19  O   UNL     1      23.373  40.923  44.041  0.00  0.00    +0.000 OA
ATOM     20  H   UNL     1      22.090  38.847  46.066  0.00  0.00    +0.000 HD
BRANCH  18  21
ATOM     21  C   UNL     1      21.646  39.298  43.572  0.00  0.00    +0.000 C 
BRANCH  21  22
ATOM     22  C   UNL     1      20.336  38.967  44.244  0.00  0.00    +0.000 A 
ATOM     23  C   UNL     1      19.925  39.710  45.364  0.00  0.00    +0.000 A 
ATOM     24  C   UNL     1      19.467  37.996  43.726  0.00  0.00    +0.000 A 
ATOM     25  C   UNL     1      18.694  39.457  45.975  0.00  0.00    +0.000 A 
ATOM     26  C   UNL     1      18.237  37.741  44.338  0.00  0.00    +0.000 A 
ATOM     27  C   UNL     1      17.858  38.470  45.462  0.00  0.00    +0.000 A 
ATOM     28 BR   UNL     1      16.193  38.125  46.288  0.00  0.00    +0.000 Br
ENDBRANCH  21  22
ENDBRANCH  18  21
ENDBRANCH   2  17
BRANCH   2  29
ATOM     29  C   UNL     1      24.715  39.825  47.133  0.00  0.00    +0.000 C 
ATOM     30  O   UNL     1      25.386  40.274  48.044  0.00  0.00    +0.000 OA
ATOM     31  OXT UNL     1      25.138  38.833  46.314  0.00  0.00    +0.000 OA
ENDBRANCH   2  29
TORSDOF 7
ENDMDL
MODEL 8
REMARK VINA RESULT:      -5.2      3.228      6.811
REMARK  Name = 321366
REMARK  7 active torsions:
REMARK  status: ('A' for Active; 'I' for Inactive)
REMARK    1  A    between atoms: C_3  and  O_5
REMARK    2  A    between atoms: O_5  and  C_8
REMARK    3  A    between atoms: C_14  and  C_15
REMARK    4  A    between atoms: CA_16  and  N_17
REMARK    5  A    between atoms: CA_16  and  C_18
REMARK    6  A    between atoms: C_19  and  C_23
REMARK    7  A    between atoms: C_23  and  C_24
REMARK                            x       y       z     vdW  Elec       q    Type
REMARK                         _______ _______ _______ _____ _____    ______ ____
ROOT
ATOM      1  C   UNL     1      20.297  42.263  44.165  0.00  0.00    +0.000 C 
ATOM      2  CA  UNL     1      19.048  42.279  43.672  0.00  0.00    +0.000 C 
ENDROOT
BRANCH   1   8
ATOM      3  C   UNL     1      22.373  41.139  47.669  0.00  0.00    +0.000 A 
ATOM      4  C   UNL     1      21.923  40.149  46.794  0.00  0.00    +0.000 A 
ATOM      5  C   UNL     1      21.894  42.446  47.546  0.00  0.00    +0.000 A 
ATOM      6  C   UNL     1      21.123  40.497  45.699  0.00  0.00    +0.000 A 
ATOM      7  C   UNL     1      21.121  42.799  46.438  0.00  0.00    +0.000 A 
ATOM      8  C   UNL     1      20.779  41.834  45.482  0.00  0.00    +0.000 A 
BRANCH   3   9
ATOM      9  O   UNL     1      23.303  40.772  48.618  0.00  0.00    +0.000 OA
BRANCH   9  12
ATOM     10 BR   UNL     1      23.949  42.885  50.764  0.00  0.00    +0.000 Br
ATOM     11  C   UNL     1      25.048  42.230  49.363  0.00  0.00    +0.000 A 
ATOM     12  C   UNL     1      24.602  41.238  48.482  0.00  0.00    +0.000 A 
ATOM     13  C   UNL     1      26.334  42.770  49.231  0.00  0.00    +0.000 A 
ATOM     14  C   UNL     1      25.497  40.732  47.525  0.00  0.00    +0.000 A 
ATOM     15  C   UNL     1      27.187  42.309  48.227  0.00  0.00    +0.000 A 
ATOM     16  C   UNL     1      26.773  41.283  47.383  0.00  0.00    +0.000 A 
ENDBRANCH   9  12
ENDBRANCH   3   9
ENDBRANCH   1   8
BRANCH   2  17
ATOM     17  N   UNL     1      17.937  41.777  44.324  0.00  0.00    +0.000 N 
ATOM     18  C   UNL     1      17.401  42.442  45.422  0.00  0.00    +0.000 C 
ATOM     19  O   UNL     1      17.823  43.525  45.822  0.00  0.00    +0.000 OA
ATOM     20  H   UNL     1      17.523  40.942  44.009  0.00  0.00    +0.000 HD
BRANCH  18  21
ATOM     21  C   UNL     1      16.325  41.661  46.169  0.00  0.00    +0.000 C 
BRANCH  21  22
ATOM     22  C   UNL     1      16.403  40.162  46.013  0.00  0.00    +0.000 A 
ATOM     23  C   UNL     1      16.831  39.614  44.792  0.00  0.00    +0.000 A 
ATOM     24  C   UNL     1      16.149  39.295  47.086  0.00  0.00    +0.000 A 
ATOM     25  C   UNL     1      16.960  38.231  44.636  0.00  0.00    +0.000 A 
ATOM     26  C   UNL     1      16.275  37.913  46.930  0.00  0.00    +0.000 A 
ATOM     27  C   UNL     1      16.676  37.387  45.705  0.00  0.00    +0.000 A 
ATOM     28 BR   UNL     1      16.847  35.516  45.496  0.00  0.00    +0.000 Br
ENDBRANCH  21  22
ENDBRANCH  18  21
ENDBRANCH   2  17
BRANCH   2  29
ATOM     29  C   UNL     1      18.873  42.988  42.367  0.00  0.00    +0.000 C 
ATOM     30  O   UNL     1      19.509  43.964  42.012  0.00  0.00    +0.000 OA
ATOM     31  OXT UNL     1      17.879  42.437  41.631  0.00  0.00    +0.000 OA
ENDBRANCH   2  29
TORSDOF 7
ENDMDL
MODEL 9
REMARK VINA RESULT:      -4.9      3.518      7.170
REMARK  Name = 321366
REMARK  7 active torsions:
REMARK  status: ('A' for Active; 'I' for Inactive)
REMARK    1  A    between atoms: C_3  and  O_5
REMARK    2  A    between atoms: O_5  and  C_8
REMARK    3  A    between atoms: C_14  and  C_15
REMARK    4  A    between atoms: CA_16  and  N_17
REMARK    5  A    between atoms: CA_16  and  C_18
REMARK    6  A    between atoms: C_19  and  C_23
REMARK    7  A    between atoms: C_23  and  C_24
REMARK                            x       y       z     vdW  Elec       q    Type
REMARK                         _______ _______ _______ _____ _____    ______ ____
ROOT
ATOM      1  C   UNL     1      18.824  43.347  46.101  0.00  0.00    +0.000 C 
ATOM      2  CA  UNL     1      17.622  43.098  45.556  0.00  0.00    +0.000 C 
ENDROOT
BRANCH   1   8
ATOM      3  C   UNL     1      22.159  41.056  47.320  0.00  0.00    +0.000 A 
ATOM      4  C   UNL     1      22.365  42.233  46.598  0.00  0.00    +0.000 A 
ATOM      5  C   UNL     1      20.882  40.494  47.383  0.00  0.00    +0.000 A 
ATOM      6  C   UNL     1      21.270  42.932  46.076  0.00  0.00    +0.000 A 
ATOM      7  C   UNL     1      19.786  41.205  46.889  0.00  0.00    +0.000 A 
ATOM      8  C   UNL     1      19.973  42.453  46.281  0.00  0.00    +0.000 A 
BRANCH   3   9
ATOM      9  O   UNL     1      23.247  40.510  47.966  0.00  0.00    +0.000 OA
BRANCH   9  12
ATOM     10 BR   UNL     1      25.917  40.648  46.438  0.00  0.00    +0.000 Br
ATOM     11  C   UNL     1      25.415  41.519  48.048  0.00  0.00    +0.000 A 
ATOM     12  C   UNL     1      24.136  41.365  48.598  0.00  0.00    +0.000 A 
ATOM     13  C   UNL     1      26.366  42.331  48.679  0.00  0.00    +0.000 A 
ATOM     14  C   UNL     1      23.799  42.109  49.740  0.00  0.00    +0.000 A 
ATOM     15  C   UNL     1      26.039  43.007  49.855  0.00  0.00    +0.000 A 
ATOM     16  C   UNL     1      24.753  42.905  50.378  0.00  0.00    +0.000 A 
ENDBRANCH   9  12
ENDBRANCH   3   9
ENDBRANCH   1   8
BRANCH   2  17
ATOM     17  N   UNL     1      17.264  41.910  44.945  0.00  0.00    +0.000 N 
ATOM     18  C   UNL     1      17.590  41.674  43.613  0.00  0.00    +0.000 C 
ATOM     19  O   UNL     1      18.264  42.451  42.940  0.00  0.00    +0.000 OA
ATOM     20  H   UNL     1      16.774  41.228  45.457  0.00  0.00    +0.000 HD
BRANCH  18  21
ATOM     21  C   UNL     1      16.941  40.430  43.017  0.00  0.00    +0.000 C 
BRANCH  21  22
ATOM     22  C   UNL     1      17.030  39.192  43.875  0.00  0.00    +0.000 A 
ATOM     23  C   UNL     1      16.136  39.026  44.947  0.00  0.00    +0.000 A 
ATOM     24  C   UNL     1      17.924  38.152  43.578  0.00  0.00    +0.000 A 
ATOM     25  C   UNL     1      16.164  37.867  45.727  0.00  0.00    +0.000 A 
ATOM     26  C   UNL     1      17.954  36.995  44.359  0.00  0.00    +0.000 A 
ATOM     27  C   UNL     1      17.077  36.859  45.433  0.00  0.00    +0.000 A 
ATOM     28 BR   UNL     1      17.118  35.291  46.488  0.00  0.00    +0.000 Br
ENDBRANCH  21  22
ENDBRANCH  18  21
ENDBRANCH   2  17
BRANCH   2  29
ATOM     29  C   UNL     1      16.595  44.171  45.729  0.00  0.00    +0.000 C 
ATOM     30  O   UNL     1      16.048  44.769  44.820  0.00  0.00    +0.000 OA
ATOM     31  OXT UNL     1      16.370  44.438  47.038  0.00  0.00    +0.000 OA
ENDBRANCH   2  29
TORSDOF 7
ENDMDL
