MODEL 1
REMARK VINA RESULT:      -8.9      0.000      0.000
REMARK  Name = 323416
REMARK  7 active torsions:
REMARK  status: ('A' for Active; 'I' for Inactive)
REMARK    1  A    between atoms: C_3  and  O_5
REMARK    2  A    between atoms: O_5  and  C_8
REMARK    3  A    between atoms: C_14  and  C_15
REMARK    4  A    between atoms: CA_16  and  N_17
REMARK    5  A    between atoms: CA_16  and  C_18
REMARK    6  A    between atoms: C_19  and  C_23
REMARK    7  A    between atoms: C_23  and  C_24
REMARK                            x       y       z     vdW  Elec       q    Type
REMARK                         _______ _______ _______ _____ _____    ______ ____
ROOT
ATOM      1  C   UNL     1      23.479  40.482  44.765  0.00  0.00    +0.000 C 
ATOM      2  CA  UNL     1      23.780  41.144  45.897  0.00  0.00    +0.000 C 
ENDROOT
BRANCH   1   8
ATOM      3  C   UNL     1      19.462  39.834  43.577  0.00  0.00    +0.000 A 
ATOM      4  C   UNL     1      20.304  38.735  43.749  0.00  0.00    +0.000 A 
ATOM      5  C   UNL     1      20.008  41.118  43.510  0.00  0.00    +0.000 A 
ATOM      6  C   UNL     1      21.665  38.937  44.029  0.00  0.00    +0.000 A 
ATOM      7  C   UNL     1      21.355  41.321  43.819  0.00  0.00    +0.000 A 
ATOM      8  C   UNL     1      22.180  40.234  44.131  0.00  0.00    +0.000 A 
BRANCH   3   9
ATOM      9  O   UNL     1      18.096  39.616  43.519  0.00  0.00    +0.000 OA
BRANCH   9  12
ATOM     10 BR   UNL     1      17.520  36.659  44.310  0.00  0.00    +0.000 Br
ATOM     11  C   UNL     1      17.027  38.260  45.203  0.00  0.00    +0.000 A 
ATOM     12  C   UNL     1      17.404  39.520  44.723  0.00  0.00    +0.000 A 
ATOM     13  C   UNL     1      16.276  38.144  46.382  0.00  0.00    +0.000 A 
ATOM     14  C   UNL     1      17.094  40.651  45.497  0.00  0.00    +0.000 A 
ATOM     15  C   UNL     1      15.924  39.283  47.107  0.00  0.00    +0.000 A 
ATOM     16  C   UNL     1      16.342  40.536  46.670  0.00  0.00    +0.000 A 
ENDBRANCH   9  12
ENDBRANCH   3   9
ENDBRANCH   1   8
BRANCH   2  17
ATOM     17  N   UNL     1      22.913  41.904  46.669  0.00  0.00    +0.000 N 
ATOM     18  C   UNL     1      21.911  41.360  47.457  0.00  0.00    +0.000 C 
ATOM     19  O   UNL     1      21.644  40.163  47.511  0.00  0.00    +0.000 OA
ATOM     20  H   UNL     1      23.015  42.883  46.656  0.00  0.00    +0.000 HD
BRANCH  18  21
ATOM     21  C   UNL     1      21.056  42.381  48.193  0.00  0.00    +0.000 C 
BRANCH  21  22
ATOM     22  C   UNL     1      19.667  42.540  47.586  0.00  0.00    +0.000 C 
ATOM     23  C   UNL     1      19.644  43.263  46.238  0.00  0.00    +0.000 C 
ATOM     24  C   UNL     1      18.751  43.437  48.423  0.00  0.00    +0.000 C 
ATOM     25  C   UNL     1      18.198  43.730  46.076  0.00  0.00    +0.000 C 
ATOM     26  C   UNL     1      17.590  43.731  47.478  0.00  0.00    +0.000 C 
ENDBRANCH  21  22
ENDBRANCH  18  21
ENDBRANCH   2  17
BRANCH   2  27
ATOM     27  C   UNL     1      25.201  40.974  46.372  0.00  0.00    +0.000 C 
ATOM     28  O   UNL     1      25.806  41.758  47.073  0.00  0.00    +0.000 OA
ATOM     29  OXT UNL     1      25.745  39.829  45.898  0.00  0.00    +0.000 OA
ENDBRANCH   2  27
TORSDOF 7
ENDMDL
MODEL 2
REMARK VINA RESULT:      -8.9      2.172      3.363
REMARK  Name = 323416
REMARK  7 active torsions:
REMARK  status: ('A' for Active; 'I' for Inactive)
REMARK    1  A    between atoms: C_3  and  O_5
REMARK    2  A    between atoms: O_5  and  C_8
REMARK    3  A    between atoms: C_14  and  C_15
REMARK    4  A    between atoms: CA_16  and  N_17
REMARK    5  A    between atoms: CA_16  and  C_18
REMARK    6  A    between atoms: C_19  and  C_23
REMARK    7  A    between atoms: C_23  and  C_24
REMARK                            x       y       z     vdW  Elec       q    Type
REMARK                         _______ _______ _______ _____ _____    ______ ____
ROOT
ATOM      1  C   UNL     1      23.140  40.124  44.373  0.00  0.00    +0.000 C 
ATOM      2  CA  UNL     1      23.803  40.461  45.495  0.00  0.00    +0.000 C 
ENDROOT
BRANCH   1   8
ATOM      3  C   UNL     1      19.008  40.852  43.769  0.00  0.00    +0.000 A 
ATOM      4  C   UNL     1      19.576  39.690  43.245  0.00  0.00    +0.000 A 
ATOM      5  C   UNL     1      19.838  41.882  44.220  0.00  0.00    +0.000 A 
ATOM      6  C   UNL     1      20.963  39.491  43.335  0.00  0.00    +0.000 A 
ATOM      7  C   UNL     1      21.213  41.671  44.339  0.00  0.00    +0.000 A 
ATOM      8  C   UNL     1      21.777  40.452  43.944  0.00  0.00    +0.000 A 
BRANCH   3   9
ATOM      9  O   UNL     1      17.629  40.929  43.863  0.00  0.00    +0.000 OA
BRANCH   9  12
ATOM     10 BR   UNL     1      16.902  42.781  46.260  0.00  0.00    +0.000 Br
ATOM     11  C   UNL     1      16.658  40.908  46.071  0.00  0.00    +0.000 A 
ATOM     12  C   UNL     1      17.012  40.231  44.897  0.00  0.00    +0.000 A 
ATOM     13  C   UNL     1      16.091  40.212  47.149  0.00  0.00    +0.000 A 
ATOM     14  C   UNL     1      16.700  38.865  44.793  0.00  0.00    +0.000 A 
ATOM     15  C   UNL     1      15.844  38.842  47.051  0.00  0.00    +0.000 A 
ATOM     16  C   UNL     1      16.139  38.170  45.869  0.00  0.00    +0.000 A 
ENDBRANCH   9  12
ENDBRANCH   3   9
ENDBRANCH   1   8
BRANCH   2  17
ATOM     17  N   UNL     1      23.384  41.360  46.465  0.00  0.00    +0.000 N 
ATOM     18  C   UNL     1      22.848  40.976  47.684  0.00  0.00    +0.000 C 
ATOM     19  O   UNL     1      22.630  39.813  48.011  0.00  0.00    +0.000 OA
ATOM     20  H   UNL     1      23.474  42.322  46.278  0.00  0.00    +0.000 HD
BRANCH  18  21
ATOM     21  C   UNL     1      22.425  42.129  48.584  0.00  0.00    +0.000 C 
BRANCH  21  22
ATOM     22  C   UNL     1      23.609  42.860  49.207  0.00  0.00    +0.000 C 
ATOM     23  C   UNL     1      24.977  42.305  48.807  0.00  0.00    +0.000 C 
ATOM     24  C   UNL     1      23.661  42.719  50.730  0.00  0.00    +0.000 C 
ATOM     25  C   UNL     1      25.933  42.829  49.879  0.00  0.00    +0.000 C 
ATOM     26  C   UNL     1      25.064  43.203  51.079  0.00  0.00    +0.000 C 
ENDBRANCH  21  22
ENDBRANCH  18  21
ENDBRANCH   2  17
BRANCH   2  27
ATOM     27  C   UNL     1      25.102  39.727  45.708  0.00  0.00    +0.000 C 
ATOM     28  O   UNL     1      26.183  40.249  45.889  0.00  0.00    +0.000 OA
ATOM     29  OXT UNL     1      24.925  38.387  45.656  0.00  0.00    +0.000 OA
ENDBRANCH   2  27
TORSDOF 7
ENDMDL
MODEL 3
REMARK VINA RESULT:      -8.6      1.132      1.552
REMARK  Name = 323416
REMARK  7 active torsions:
REMARK  status: ('A' for Active; 'I' for Inactive)
REMARK    1  A    between atoms: C_3  and  O_5
REMARK    2  A    between atoms: O_5  and  C_8
REMARK    3  A    between atoms: C_14  and  C_15
REMARK    4  A    between atoms: CA_16  and  N_17
REMARK    5  A    between atoms: CA_16  and  C_18
REMARK    6  A    between atoms: C_19  and  C_23
REMARK    7  A    between atoms: C_23  and  C_24
REMARK                            x       y       z     vdW  Elec       q    Type
REMARK                         _______ _______ _______ _____ _____    ______ ____
ROOT
ATOM      1  C   UNL     1      23.730  40.524  44.837  0.00  0.00    +0.000 C 
ATOM      2  CA  UNL     1      23.986  41.131  46.010  0.00  0.00    +0.000 C 
ENDROOT
BRANCH   1   8
ATOM      3  C   UNL     1      19.765  39.931  43.459  0.00  0.00    +0.000 A 
ATOM      4  C   UNL     1      20.609  38.828  43.594  0.00  0.00    +0.000 A 
ATOM      5  C   UNL     1      20.304  41.220  43.494  0.00  0.00    +0.000 A 
ATOM      6  C   UNL     1      21.957  39.019  43.937  0.00  0.00    +0.000 A 
ATOM      7  C   UNL     1      21.636  41.410  43.866  0.00  0.00    +0.000 A 
ATOM      8  C   UNL     1      22.457  40.310  44.140  0.00  0.00    +0.000 A 
BRANCH   3   9
ATOM      9  O   UNL     1      18.404  39.710  43.336  0.00  0.00    +0.000 OA
BRANCH   9  12
ATOM     10 BR   UNL     1      16.845  42.320  44.014  0.00  0.00    +0.000 Br
ATOM     11  C   UNL     1      16.932  40.687  44.978  0.00  0.00    +0.000 A 
ATOM     12  C   UNL     1      17.660  39.587  44.505  0.00  0.00    +0.000 A 
ATOM     13  C   UNL     1      16.225  40.605  46.187  0.00  0.00    +0.000 A 
ATOM     14  C   UNL     1      17.588  38.380  45.221  0.00  0.00    +0.000 A 
ATOM     15  C   UNL     1      16.214  39.415  46.916  0.00  0.00    +0.000 A 
ATOM     16  C   UNL     1      16.887  38.299  46.428  0.00  0.00    +0.000 A 
ENDBRANCH   9  12
ENDBRANCH   3   9
ENDBRANCH   1   8
BRANCH   2  17
ATOM     17  N   UNL     1      23.088  41.857  46.781  0.00  0.00    +0.000 N 
ATOM     18  C   UNL     1      22.074  41.276  47.526  0.00  0.00    +0.000 C 
ATOM     19  O   UNL     1      21.823  40.075  47.539  0.00  0.00    +0.000 OA
ATOM     20  H   UNL     1      23.177  42.837  46.799  0.00  0.00    +0.000 HD
BRANCH  18  21
ATOM     21  C   UNL     1      21.187  42.264  48.269  0.00  0.00    +0.000 C 
BRANCH  21  22
ATOM     22  C   UNL     1      19.826  42.454  47.608  0.00  0.00    +0.000 C 
ATOM     23  C   UNL     1      19.854  43.310  46.340  0.00  0.00    +0.000 C 
ATOM     24  C   UNL     1      18.845  43.242  48.480  0.00  0.00    +0.000 C 
ATOM     25  C   UNL     1      18.405  43.760  46.148  0.00  0.00    +0.000 C 
ATOM     26  C   UNL     1      17.727  43.605  47.509  0.00  0.00    +0.000 C 
ENDBRANCH  21  22
ENDBRANCH  18  21
ENDBRANCH   2  17
BRANCH   2  27
ATOM     27  C   UNL     1      25.386  40.935  46.534  0.00  0.00    +0.000 C 
ATOM     28  O   UNL     1      26.137  40.038  46.210  0.00  0.00    +0.000 OA
ATOM     29  OXT UNL     1      25.710  41.884  47.442  0.00  0.00    +0.000 OA
ENDBRANCH   2  27
TORSDOF 7
ENDMDL
MODEL 4
REMARK VINA RESULT:      -8.5      2.949      6.958
REMARK  Name = 323416
REMARK  7 active torsions:
REMARK  status: ('A' for Active; 'I' for Inactive)
REMARK    1  A    between atoms: C_3  and  O_5
REMARK    2  A    between atoms: O_5  and  C_8
REMARK    3  A    between atoms: C_14  and  C_15
REMARK    4  A    between atoms: CA_16  and  N_17
REMARK    5  A    between atoms: CA_16  and  C_18
REMARK    6  A    between atoms: C_19  and  C_23
REMARK    7  A    between atoms: C_23  and  C_24
REMARK                            x       y       z     vdW  Elec       q    Type
REMARK                         _______ _______ _______ _____ _____    ______ ____
ROOT
ATOM      1  C   UNL     1      19.912  41.799  43.559  0.00  0.00    +0.000 C 
ATOM      2  CA  UNL     1      18.611  41.456  43.570  0.00  0.00    +0.000 C 
ENDROOT
BRANCH   1   8
ATOM      3  C   UNL     1      22.389  41.024  46.912  0.00  0.00    +0.000 A 
ATOM      4  C   UNL     1      21.773  42.270  46.797  0.00  0.00    +0.000 A 
ATOM      5  C   UNL     1      22.424  40.168  45.807  0.00  0.00    +0.000 A 
ATOM      6  C   UNL     1      21.045  42.584  45.638  0.00  0.00    +0.000 A 
ATOM      7  C   UNL     1      21.675  40.466  44.668  0.00  0.00    +0.000 A 
ATOM      8  C   UNL     1      20.938  41.654  44.598  0.00  0.00    +0.000 A 
BRANCH   3   9
ATOM      9  O   UNL     1      22.912  40.656  48.139  0.00  0.00    +0.000 OA
BRANCH   9  12
ATOM     10 BR   UNL     1      25.632  40.552  46.625  0.00  0.00    +0.000 Br
ATOM     11  C   UNL     1      25.159  41.532  48.180  0.00  0.00    +0.000 A 
ATOM     12  C   UNL     1      23.865  41.492  48.714  0.00  0.00    +0.000 A 
ATOM     13  C   UNL     1      26.151  42.321  48.780  0.00  0.00    +0.000 A 
ATOM     14  C   UNL     1      23.565  42.329  49.802  0.00  0.00    +0.000 A 
ATOM     15  C   UNL     1      25.851  43.100  49.898  0.00  0.00    +0.000 A 
ATOM     16  C   UNL     1      24.554  43.112  50.403  0.00  0.00    +0.000 A 
ENDBRANCH   9  12
ENDBRANCH   3   9
ENDBRANCH   1   8
BRANCH   2  17
ATOM     17  N   UNL     1      17.957  40.719  44.546  0.00  0.00    +0.000 N 
ATOM     18  C   UNL     1      17.356  41.284  45.660  0.00  0.00    +0.000 C 
ATOM     19  O   UNL     1      17.389  42.480  45.934  0.00  0.00    +0.000 OA
ATOM     20  H   UNL     1      17.917  39.741  44.441  0.00  0.00    +0.000 HD
BRANCH  18  21
ATOM     21  C   UNL     1      16.725  40.284  46.618  0.00  0.00    +0.000 C 
BRANCH  21  22
ATOM     22  C   UNL     1      17.136  38.844  46.329  0.00  0.00    +0.000 C 
ATOM     23  C   UNL     1      17.989  38.670  45.071  0.00  0.00    +0.000 C 
ATOM     24  C   UNL     1      15.944  37.937  46.010  0.00  0.00    +0.000 C 
ATOM     25  C   UNL     1      17.862  37.188  44.721  0.00  0.00    +0.000 C 
ATOM     26  C   UNL     1      16.599  36.691  45.425  0.00  0.00    +0.000 C 
ENDBRANCH  21  22
ENDBRANCH  18  21
ENDBRANCH   2  17
BRANCH   2  27
ATOM     27  C   UNL     1      17.805  41.993  42.415  0.00  0.00    +0.000 C 
ATOM     28  O   UNL     1      16.850  41.442  41.909  0.00  0.00    +0.000 OA
ATOM     29  OXT UNL     1      18.292  43.180  41.984  0.00  0.00    +0.000 OA
ENDBRANCH   2  27
TORSDOF 7
ENDMDL
MODEL 5
REMARK VINA RESULT:      -8.4      1.799      4.086
REMARK  Name = 323416
REMARK  7 active torsions:
REMARK  status: ('A' for Active; 'I' for Inactive)
REMARK    1  A    between atoms: C_3  and  O_5
REMARK    2  A    between atoms: O_5  and  C_8
REMARK    3  A    between atoms: C_14  and  C_15
REMARK    4  A    between atoms: CA_16  and  N_17
REMARK    5  A    between atoms: CA_16  and  C_18
REMARK    6  A    between atoms: C_19  and  C_23
REMARK    7  A    between atoms: C_23  and  C_24
REMARK                            x       y       z     vdW  Elec       q    Type
REMARK                         _______ _______ _______ _____ _____    ______ ____
ROOT
ATOM      1  C   UNL     1      22.288  42.248  48.256  0.00  0.00    +0.000 C 
ATOM      2  CA  UNL     1      23.387  41.797  47.625  0.00  0.00    +0.000 C 
ENDROOT
BRANCH   1   8
ATOM      3  C   UNL     1      18.356  42.754  46.753  0.00  0.00    +0.000 A 
ATOM      4  C   UNL     1      19.421  42.675  45.855  0.00  0.00    +0.000 A 
ATOM      5  C   UNL     1      18.613  42.957  48.111  0.00  0.00    +0.000 A 
ATOM      6  C   UNL     1      20.738  42.625  46.338  0.00  0.00    +0.000 A 
ATOM      7  C   UNL     1      19.921  42.875  48.595  0.00  0.00    +0.000 A 
ATOM      8  C   UNL     1      20.987  42.656  47.715  0.00  0.00    +0.000 A 
BRANCH   3   9
ATOM      9  O   UNL     1      17.070  42.584  46.269  0.00  0.00    +0.000 OA
BRANCH   9  12
ATOM     10 BR   UNL     1      16.583  39.578  46.923  0.00  0.00    +0.000 Br
ATOM     11  C   UNL     1      16.722  40.434  45.235  0.00  0.00    +0.000 A 
ATOM     12  C   UNL     1      16.907  41.817  45.119  0.00  0.00    +0.000 A 
ATOM     13  C   UNL     1      16.618  39.633  44.087  0.00  0.00    +0.000 A 
ATOM     14  C   UNL     1      16.891  42.390  43.836  0.00  0.00    +0.000 A 
ATOM     15  C   UNL     1      16.664  40.212  42.818  0.00  0.00    +0.000 A 
ATOM     16  C   UNL     1      16.792  41.592  42.693  0.00  0.00    +0.000 A 
ENDBRANCH   9  12
ENDBRANCH   3   9
ENDBRANCH   1   8
BRANCH   2  17
ATOM     17  N   UNL     1      23.492  41.455  46.284  0.00  0.00    +0.000 N 
ATOM     18  C   UNL     1      23.587  40.149  45.831  0.00  0.00    +0.000 C 
ATOM     19  O   UNL     1      23.649  39.164  46.561  0.00  0.00    +0.000 OA
ATOM     20  H   UNL     1      23.499  42.181  45.619  0.00  0.00    +0.000 HD
BRANCH  18  21
ATOM     21  C   UNL     1      23.726  40.008  44.322  0.00  0.00    +0.000 C 
BRANCH  21  22
ATOM     22  C   UNL     1      22.385  39.858  43.613  0.00  0.00    +0.000 C 
ATOM     23  C   UNL     1      21.687  41.181  43.293  0.00  0.00    +0.000 C 
ATOM     24  C   UNL     1      21.329  39.163  44.478  0.00  0.00    +0.000 C 
ATOM     25  C   UNL     1      20.225  40.799  43.061  0.00  0.00    +0.000 C 
ATOM     26  C   UNL     1      20.029  39.439  43.731  0.00  0.00    +0.000 C 
ENDBRANCH  21  22
ENDBRANCH  18  21
ENDBRANCH   2  17
BRANCH   2  27
ATOM     27  C   UNL     1      24.624  41.720  48.483  0.00  0.00    +0.000 C 
ATOM     28  O   UNL     1      25.698  41.279  48.130  0.00  0.00    +0.000 OA
ATOM     29  OXT UNL     1      24.389  42.193  49.729  0.00  0.00    +0.000 OA
ENDBRANCH   2  27
TORSDOF 7
ENDMDL
MODEL 6
REMARK VINA RESULT:      -8.0      2.005      3.560
REMARK  Name = 323416
REMARK  7 active torsions:
REMARK  status: ('A' for Active; 'I' for Inactive)
REMARK    1  A    between atoms: C_3  and  O_5
REMARK    2  A    between atoms: O_5  and  C_8
REMARK    3  A    between atoms: C_14  and  C_15
REMARK    4  A    between atoms: CA_16  and  N_17
REMARK    5  A    between atoms: CA_16  and  C_18
REMARK    6  A    between atoms: C_19  and  C_23
REMARK    7  A    between atoms: C_23  and  C_24
REMARK                            x       y       z     vdW  Elec       q    Type
REMARK                         _______ _______ _______ _____ _____    ______ ____
ROOT
ATOM      1  C   UNL     1      22.708  39.280  44.257  0.00  0.00    +0.000 C 
ATOM      2  CA  UNL     1      23.398  39.726  45.323  0.00  0.00    +0.000 C 
ENDROOT
BRANCH   1   8
ATOM      3  C   UNL     1      18.710  40.500  43.550  0.00  0.00    +0.000 A 
ATOM      4  C   UNL     1      18.983  39.145  43.739  0.00  0.00    +0.000 A 
ATOM      5  C   UNL     1      19.762  41.388  43.307  0.00  0.00    +0.000 A 
ATOM      6  C   UNL     1      20.313  38.712  43.858  0.00  0.00    +0.000 A 
ATOM      7  C   UNL     1      21.084  40.963  43.457  0.00  0.00    +0.000 A 
ATOM      8  C   UNL     1      21.365  39.632  43.785  0.00  0.00    +0.000 A 
BRANCH   3   9
ATOM      9  O   UNL     1      17.399  40.931  43.652  0.00  0.00    +0.000 OA
BRANCH   9  12
ATOM     10 BR   UNL     1      17.122  39.633  46.470  0.00  0.00    +0.000 Br
ATOM     11  C   UNL     1      16.900  41.446  45.954  0.00  0.00    +0.000 A 
ATOM     12  C   UNL     1      17.101  41.870  44.635  0.00  0.00    +0.000 A 
ATOM     13  C   UNL     1      16.537  42.366  46.949  0.00  0.00    +0.000 A 
ATOM     14  C   UNL     1      17.022  43.244  44.355  0.00  0.00    +0.000 A 
ATOM     15  C   UNL     1      16.405  43.721  46.640  0.00  0.00    +0.000 A 
ATOM     16  C   UNL     1      16.657  44.161  45.345  0.00  0.00    +0.000 A 
ENDBRANCH   9  12
ENDBRANCH   3   9
ENDBRANCH   1   8
BRANCH   2  17
ATOM     17  N   UNL     1      23.043  40.773  46.161  0.00  0.00    +0.000 N 
ATOM     18  C   UNL     1      22.834  40.628  47.523  0.00  0.00    +0.000 C 
ATOM     19  O   UNL     1      22.882  39.557  48.122  0.00  0.00    +0.000 OA
ATOM     20  H   UNL     1      22.932  41.668  45.765  0.00  0.00    +0.000 HD
BRANCH  18  21
ATOM     21  C   UNL     1      22.419  41.903  48.242  0.00  0.00    +0.000 C 
BRANCH  21  22
ATOM     22  C   UNL     1      23.604  42.684  48.800  0.00  0.00    +0.000 C 
ATOM     23  C   UNL     1      24.972  42.121  48.409  0.00  0.00    +0.000 C 
ATOM     24  C   UNL     1      23.684  42.634  50.328  0.00  0.00    +0.000 C 
ATOM     25  C   UNL     1      25.940  42.719  49.430  0.00  0.00    +0.000 C 
ATOM     26  C   UNL     1      25.087  43.153  50.622  0.00  0.00    +0.000 C 
ENDBRANCH  21  22
ENDBRANCH  18  21
ENDBRANCH   2  17
BRANCH   2  27
ATOM     27  C   UNL     1      24.650  38.948  45.638  0.00  0.00    +0.000 C 
ATOM     28  O   UNL     1      24.716  37.742  45.760  0.00  0.00    +0.000 OA
ATOM     29  OXT UNL     1      25.715  39.769  45.793  0.00  0.00    +0.000 OA
ENDBRANCH   2  27
TORSDOF 7
ENDMDL
MODEL 7
REMARK VINA RESULT:      -8.0      2.821      6.460
REMARK  Name = 323416
REMARK  7 active torsions:
REMARK  status: ('A' for Active; 'I' for Inactive)
REMARK    1  A    between atoms: C_3  and  O_5
REMARK    2  A    between atoms: O_5  and  C_8
REMARK    3  A    between atoms: C_14  and  C_15
REMARK    4  A    between atoms: CA_16  and  N_17
REMARK    5  A    between atoms: CA_16  and  C_18
REMARK    6  A    between atoms: C_19  and  C_23
REMARK    7  A    between atoms: C_23  and  C_24
REMARK                            x       y       z     vdW  Elec       q    Type
REMARK                         _______ _______ _______ _____ _____    ______ ____
ROOT
ATOM      1  C   UNL     1      19.971  41.485  43.379  0.00  0.00    +0.000 C 
ATOM      2  CA  UNL     1      18.638  41.629  43.492  0.00  0.00    +0.000 C 
ENDROOT
BRANCH   1   8
ATOM      3  C   UNL     1      22.433  40.783  46.758  0.00  0.00    +0.000 A 
ATOM      4  C   UNL     1      21.908  42.059  46.554  0.00  0.00    +0.000 A 
ATOM      5  C   UNL     1      22.390  39.846  45.721  0.00  0.00    +0.000 A 
ATOM      6  C   UNL     1      21.188  42.338  45.382  0.00  0.00    +0.000 A 
ATOM      7  C   UNL     1      21.647  40.112  44.569  0.00  0.00    +0.000 A 
ATOM      8  C   UNL     1      20.998  41.343  44.416  0.00  0.00    +0.000 A 
BRANCH   3   9
ATOM      9  O   UNL     1      22.946  40.470  48.005  0.00  0.00    +0.000 OA
BRANCH   9  12
ATOM     10 BR   UNL     1      25.716  40.468  46.580  0.00  0.00    +0.000 Br
ATOM     11  C   UNL     1      25.142  41.465  48.089  0.00  0.00    +0.000 A 
ATOM     12  C   UNL     1      23.835  41.372  48.583  0.00  0.00    +0.000 A 
ATOM     13  C   UNL     1      26.072  42.322  48.696  0.00  0.00    +0.000 A 
ATOM     14  C   UNL     1      23.456  42.222  49.636  0.00  0.00    +0.000 A 
ATOM     15  C   UNL     1      25.695  43.116  49.780  0.00  0.00    +0.000 A 
ATOM     16  C   UNL     1      24.384  43.073  50.244  0.00  0.00    +0.000 A 
ENDBRANCH   9  12
ENDBRANCH   3   9
ENDBRANCH   1   8
BRANCH   2  17
ATOM     17  N   UNL     1      17.887  41.517  44.653  0.00  0.00    +0.000 N 
ATOM     18  C   UNL     1      17.372  40.318  45.119  0.00  0.00    +0.000 C 
ATOM     19  O   UNL     1      17.471  39.245  44.531  0.00  0.00    +0.000 OA
ATOM     20  H   UNL     1      17.711  42.334  45.174  0.00  0.00    +0.000 HD
BRANCH  18  21
ATOM     21  C   UNL     1      16.551  40.432  46.395  0.00  0.00    +0.000 C 
BRANCH  21  22
ATOM     22  C   UNL     1      17.010  41.573  47.297  0.00  0.00    +0.000 C 
ATOM     23  C   UNL     1      16.804  42.969  46.705  0.00  0.00    +0.000 C 
ATOM     24  C   UNL     1      18.523  41.570  47.536  0.00  0.00    +0.000 C 
ATOM     25  C   UNL     1      17.741  43.870  47.509  0.00  0.00    +0.000 C 
ATOM     26  C   UNL     1      18.784  42.946  48.138  0.00  0.00    +0.000 C 
ENDBRANCH  21  22
ENDBRANCH  18  21
ENDBRANCH   2  17
BRANCH   2  27
ATOM     27  C   UNL     1      17.931  42.005  42.214  0.00  0.00    +0.000 C 
ATOM     28  O   UNL     1      18.208  42.955  41.511  0.00  0.00    +0.000 OA
ATOM     29  OXT UNL     1      16.915  41.153  41.944  0.00  0.00    +0.000 OA
ENDBRANCH   2  27
TORSDOF 7
ENDMDL
MODEL 8
REMARK VINA RESULT:      -7.2      1.554      2.334
REMARK  Name = 323416
REMARK  7 active torsions:
REMARK  status: ('A' for Active; 'I' for Inactive)
REMARK    1  A    between atoms: C_3  and  O_5
REMARK    2  A    between atoms: O_5  and  C_8
REMARK    3  A    between atoms: C_14  and  C_15
REMARK    4  A    between atoms: CA_16  and  N_17
REMARK    5  A    between atoms: CA_16  and  C_18
REMARK    6  A    between atoms: C_19  and  C_23
REMARK    7  A    between atoms: C_23  and  C_24
REMARK                            x       y       z     vdW  Elec       q    Type
REMARK                         _______ _______ _______ _____ _____    ______ ____
ROOT
ATOM      1  C   UNL     1      24.355  40.926  46.265  0.00  0.00    +0.000 C 
ATOM      2  CA  UNL     1      24.032  41.413  47.477  0.00  0.00    +0.000 C 
ENDROOT
BRANCH   1   8
ATOM      3  C   UNL     1      21.384  39.395  43.657  0.00  0.00    +0.000 A 
ATOM      4  C   UNL     1      21.930  38.557  44.630  0.00  0.00    +0.000 A 
ATOM      5  C   UNL     1      22.010  40.609  43.362  0.00  0.00    +0.000 A 
ATOM      6  C   UNL     1      22.995  39.012  45.423  0.00  0.00    +0.000 A 
ATOM      7  C   UNL     1      23.048  41.074  44.171  0.00  0.00    +0.000 A 
ATOM      8  C   UNL     1      23.512  40.299  45.241  0.00  0.00    +0.000 A 
BRANCH   3   9
ATOM      9  O   UNL     1      20.206  39.011  43.040  0.00  0.00    +0.000 OA
BRANCH   9  12
ATOM     10 BR   UNL     1      17.893  37.455  44.430  0.00  0.00    +0.000 Br
ATOM     11  C   UNL     1      17.934  39.250  43.814  0.00  0.00    +0.000 A 
ATOM     12  C   UNL     1      19.082  39.808  43.238  0.00  0.00    +0.000 A 
ATOM     13  C   UNL     1      16.770  40.018  43.966  0.00  0.00    +0.000 A 
ATOM     14  C   UNL     1      19.068  41.173  42.906  0.00  0.00    +0.000 A 
ATOM     15  C   UNL     1      16.754  41.358  43.575  0.00  0.00    +0.000 A 
ATOM     16  C   UNL     1      17.907  41.938  43.054  0.00  0.00    +0.000 A 
ENDBRANCH   9  12
ENDBRANCH   3   9
ENDBRANCH   1   8
BRANCH   2  17
ATOM     17  N   UNL     1      22.753  41.580  47.988  0.00  0.00    +0.000 N 
ATOM     18  C   UNL     1      21.772  42.337  47.367  0.00  0.00    +0.000 C 
ATOM     19  O   UNL     1      21.943  42.984  46.338  0.00  0.00    +0.000 OA
ATOM     20  H   UNL     1      22.531  41.137  48.839  0.00  0.00    +0.000 HD
BRANCH  18  21
ATOM     21  C   UNL     1      20.453  42.411  48.122  0.00  0.00    +0.000 C 
BRANCH  21  22
ATOM     22  C   UNL     1      19.242  42.478  47.197  0.00  0.00    +0.000 C 
ATOM     23  C   UNL     1      18.352  43.703  47.408  0.00  0.00    +0.000 C 
ATOM     24  C   UNL     1      18.247  41.339  47.436  0.00  0.00    +0.000 C 
ATOM     25  C   UNL     1      17.016  43.324  46.768  0.00  0.00    +0.000 C 
ATOM     26  C   UNL     1      17.003  41.798  46.684  0.00  0.00    +0.000 C 
ENDBRANCH  21  22
ENDBRANCH  18  21
ENDBRANCH   2  17
BRANCH   2  27
ATOM     27  C   UNL     1      25.207  41.748  48.359  0.00  0.00    +0.000 C 
ATOM     28  O   UNL     1      26.352  41.395  48.168  0.00  0.00    +0.000 OA
ATOM     29  OXT UNL     1      24.827  42.490  49.425  0.00  0.00    +0.000 OA
ENDBRANCH   2  27
TORSDOF 7
ENDMDL
MODEL 9
REMARK VINA RESULT:      -7.0      3.195      7.284
REMARK  Name = 323416
REMARK  7 active torsions:
REMARK  status: ('A' for Active; 'I' for Inactive)
REMARK    1  A    between atoms: C_3  and  O_5
REMARK    2  A    between atoms: O_5  and  C_8
REMARK    3  A    between atoms: C_14  and  C_15
REMARK    4  A    between atoms: CA_16  and  N_17
REMARK    5  A    between atoms: CA_16  and  C_18
REMARK    6  A    between atoms: C_19  and  C_23
REMARK    7  A    between atoms: C_23  and  C_24
REMARK                            x       y       z     vdW  Elec       q    Type
REMARK                         _______ _______ _______ _____ _____    ______ ____
ROOT
ATOM      1  C   UNL     1      18.852  43.150  45.956  0.00  0.00    +0.000 C 
ATOM      2  CA  UNL     1      17.650  42.853  45.430  0.00  0.00    +0.000 C 
ENDROOT
BRANCH   1   8
ATOM      3  C   UNL     1      22.199  40.937  47.323  0.00  0.00    +0.000 A 
ATOM      4  C   UNL     1      22.411  42.082  46.555  0.00  0.00    +0.000 A 
ATOM      5  C   UNL     1      20.921  40.376  47.388  0.00  0.00    +0.000 A 
ATOM      6  C   UNL     1      21.315  42.760  45.998  0.00  0.00    +0.000 A 
ATOM      7  C   UNL     1      19.828  41.067  46.861  0.00  0.00    +0.000 A 
ATOM      8  C   UNL     1      20.014  42.290  46.207  0.00  0.00    +0.000 A 
BRANCH   3   9
ATOM      9  O   UNL     1      23.264  40.414  48.037  0.00  0.00    +0.000 OA
BRANCH   9  12
ATOM     10 BR   UNL     1      25.934  40.624  46.447  0.00  0.00    +0.000 Br
ATOM     11  C   UNL     1      25.422  41.491  48.055  0.00  0.00    +0.000 A 
ATOM     12  C   UNL     1      24.154  41.311  48.622  0.00  0.00    +0.000 A 
ATOM     13  C   UNL     1      26.357  42.343  48.663  0.00  0.00    +0.000 A 
ATOM     14  C   UNL     1      23.812  42.071  49.753  0.00  0.00    +0.000 A 
ATOM     15  C   UNL     1      26.021  43.045  49.821  0.00  0.00    +0.000 A 
ATOM     16  C   UNL     1      24.745  42.916  50.361  0.00  0.00    +0.000 A 
ENDBRANCH   9  12
ENDBRANCH   3   9
ENDBRANCH   1   8
BRANCH   2  17
ATOM     17  N   UNL     1      17.276  41.654  44.840  0.00  0.00    +0.000 N 
ATOM     18  C   UNL     1      17.933  41.096  43.755  0.00  0.00    +0.000 C 
ATOM     19  O   UNL     1      18.870  41.626  43.164  0.00  0.00    +0.000 OA
ATOM     20  H   UNL     1      16.502  41.174  45.214  0.00  0.00    +0.000 HD
BRANCH  18  21
ATOM     21  C   UNL     1      17.332  39.793  43.250  0.00  0.00    +0.000 C 
BRANCH  21  22
ATOM     22  C   UNL     1      16.685  38.968  44.357  0.00  0.00    +0.000 C 
ATOM     23  C   UNL     1      16.645  39.662  45.720  0.00  0.00    +0.000 C 
ATOM     24  C   UNL     1      17.472  37.698  44.690  0.00  0.00    +0.000 C 
ATOM     25  C   UNL     1      16.432  38.528  46.723  0.00  0.00    +0.000 C 
ATOM     26  C   UNL     1      16.862  37.245  46.012  0.00  0.00    +0.000 C 
ENDBRANCH  21  22
ENDBRANCH  18  21
ENDBRANCH   2  17
BRANCH   2  27
ATOM     27  C   UNL     1      16.614  43.940  45.563  0.00  0.00    +0.000 C 
ATOM     28  O   UNL     1      16.203  44.394  46.611  0.00  0.00    +0.000 OA
ATOM     29  OXT UNL     1      16.169  44.348  44.353  0.00  0.00    +0.000 OA
ENDBRANCH   2  27
TORSDOF 7
ENDMDL
