MODEL 1
REMARK VINA RESULT:      -5.6      0.000      0.000
REMARK  Name = 323372
REMARK  8 active torsions:
REMARK  status: ('A' for Active; 'I' for Inactive)
REMARK    1  A    between atoms: C_3  and  O_5
REMARK    2  A    between atoms: O_5  and  C_8
REMARK    3  A    between atoms: C_14  and  C_15
REMARK    4  A    between atoms: C_16  and  N_17
REMARK    5  A    between atoms: C_16  and  C_18
REMARK    6  A    between atoms: C_19  and  C_23
REMARK    7  A    between atoms: N_21  and  CA_24
REMARK    8  A    between atoms: CA_24  and  C_27
REMARK                            x       y       z     vdW  Elec       q    Type
REMARK                         _______ _______ _______ _____ _____    ______ ____
ROOT
ATOM      1  C   UNK A   1      20.352  42.341  43.493  0.00  0.00    +0.000 C 
ATOM      2  C   UNK A   1      19.076  41.955  43.310  0.00  0.00    +0.000 C 
ENDROOT
BRANCH   1   8
ATOM      3  C   UNK A   1      22.580  41.209  46.939  0.00  0.00    +0.000 A 
ATOM      4  C   UNK A   1      21.932  42.444  46.917  0.00  0.00    +0.000 A 
ATOM      5  C   UNK A   1      22.709  40.475  45.756  0.00  0.00    +0.000 A 
ATOM      6  C   UNK A   1      21.282  42.869  45.752  0.00  0.00    +0.000 A 
ATOM      7  C   UNK A   1      22.042  40.893  44.598  0.00  0.00    +0.000 A 
ATOM      8  C   UNK A   1      21.284  42.071  44.601  0.00  0.00    +0.000 A 
BRANCH   3   9
ATOM      9  O   UNK A   1      23.054  40.753  48.152  0.00  0.00    +0.000 OA
BRANCH   9  12
ATOM     10 BR   UNK A   1      25.861  40.690  46.852  0.00  0.00    +0.000 Br
ATOM     11  C   UNK A   1      25.282  41.609  48.407  0.00  0.00    +0.000 A 
ATOM     12  C   UNK A   1      23.951  41.555  48.841  0.00  0.00    +0.000 A 
ATOM     13  C   UNK A   1      26.229  42.357  49.118  0.00  0.00    +0.000 A 
ATOM     14  C   UNK A   1      23.569  42.341  49.941  0.00  0.00    +0.000 A 
ATOM     15  C   UNK A   1      25.850  43.072  50.254  0.00  0.00    +0.000 A 
ATOM     16  C   UNK A   1      24.517  43.075  50.657  0.00  0.00    +0.000 A 
ENDBRANCH   9  12
ENDBRANCH   3   9
ENDBRANCH   1   8
BRANCH   2  17
ATOM     17  N   UNK A   1      18.373  41.071  44.113  0.00  0.00    +0.000 N 
ATOM     18  C   UNK A   0      18.643  39.713  44.099  0.00  0.00    +0.000 C 
ATOM     19  O   UNK A   0      19.426  39.171  43.323  0.00  0.00    +0.000 OA
ATOM     20  H   UNK A   1      17.667  41.415  44.705  0.00  0.00    +0.000 HD
BRANCH  18  21
ATOM     21  C   UNK A   0      17.836  38.858  45.008  0.00  0.00    +0.000 A 
ATOM     22  C   UNK A   0      17.090  39.498  46.008  0.00  0.00    +0.000 A 
ATOM     23  C   UNK A   0      17.721  37.475  44.833  0.00  0.00    +0.000 A 
ATOM     24  C   UNK A   0      16.210  38.769  46.807  0.00  0.00    +0.000 A 
ATOM     25  C   UNK A   0      16.832  36.749  45.634  0.00  0.00    +0.000 A 
ATOM     26  C   UNK A   0      16.073  37.397  46.611  0.00  0.00    +0.000 A 
ENDBRANCH  18  21
ENDBRANCH   2  17
BRANCH   2  27
ATOM     27  C   UNK A   1      18.361  42.573  42.126  0.00  0.00    +0.000 C 
ATOM     28  O   UNK A   1      18.559  43.723  41.747  0.00  0.00    +0.000 OA
ATOM     29  N   GLY A   2      17.498  41.722  41.478  0.00  0.00    +0.000 N 
ATOM     30  H   GLY A   2      17.302  40.837  41.862  0.00  0.00    +0.000 HD
BRANCH  29  31
ATOM     31  CA  GLY A   2      16.873  42.124  40.229  0.00  0.00    +0.000 C 
BRANCH  31  32
ATOM     32  C   GLY A   2      15.545  41.410  40.032  0.00  0.00    +0.000 C 
ATOM     33  O   GLY A   2      14.828  41.034  40.950  0.00  0.00    +0.000 OA
ATOM     34  OXT GLY A   2      15.223  41.215  38.733  0.00  0.00    +0.000 OA
ENDBRANCH  31  32
ENDBRANCH  29  31
ENDBRANCH   2  27
TORSDOF 8
ENDMDL
MODEL 2
REMARK VINA RESULT:      -4.6      2.731      4.351
REMARK  Name = 323372
REMARK  8 active torsions:
REMARK  status: ('A' for Active; 'I' for Inactive)
REMARK    1  A    between atoms: C_3  and  O_5
REMARK    2  A    between atoms: O_5  and  C_8
REMARK    3  A    between atoms: C_14  and  C_15
REMARK    4  A    between atoms: C_16  and  N_17
REMARK    5  A    between atoms: C_16  and  C_18
REMARK    6  A    between atoms: C_19  and  C_23
REMARK    7  A    between atoms: N_21  and  CA_24
REMARK    8  A    between atoms: CA_24  and  C_27
REMARK                            x       y       z     vdW  Elec       q    Type
REMARK                         _______ _______ _______ _____ _____    ______ ____
ROOT
ATOM      1  C   UNK A   1      20.914  39.203  44.348  0.00  0.00    +0.000 C 
ATOM      2  C   UNK A   1      19.664  39.668  44.527  0.00  0.00    +0.000 C 
ENDROOT
BRANCH   1   8
ATOM      3  C   UNK A   1      24.585  40.685  45.911  0.00  0.00    +0.000 A 
ATOM      4  C   UNK A   1      23.474  41.526  45.859  0.00  0.00    +0.000 A 
ATOM      5  C   UNK A   1      24.563  39.467  45.227  0.00  0.00    +0.000 A 
ATOM      6  C   UNK A   1      22.291  41.081  45.254  0.00  0.00    +0.000 A 
ATOM      7  C   UNK A   1      23.374  39.016  44.640  0.00  0.00    +0.000 A 
ATOM      8  C   UNK A   1      22.216  39.801  44.690  0.00  0.00    +0.000 A 
BRANCH   3   9
ATOM      9  O   UNK A   1      25.666  41.094  46.667  0.00  0.00    +0.000 OA
BRANCH   9  12
ATOM     10 BR   UNK A   1      23.689  39.470  48.407  0.00  0.00    +0.000 Br
ATOM     11  C   UNK A   1      24.502  41.146  48.765  0.00  0.00    +0.000 A 
ATOM     12  C   UNK A   1      25.411  41.729  47.873  0.00  0.00    +0.000 A 
ATOM     13  C   UNK A   1      24.170  41.794  49.962  0.00  0.00    +0.000 A 
ATOM     14  C   UNK A   1      26.052  42.922  48.247  0.00  0.00    +0.000 A 
ATOM     15  C   UNK A   1      24.759  43.016  50.286  0.00  0.00    +0.000 A 
ATOM     16  C   UNK A   1      25.710  43.573  49.435  0.00  0.00    +0.000 A 
ENDBRANCH   9  12
ENDBRANCH   3   9
ENDBRANCH   1   8
BRANCH   2  17
ATOM     17  N   UNK A   1      19.318  40.817  45.221  0.00  0.00    +0.000 N 
ATOM     18  C   UNK A   0      18.375  40.791  46.233  0.00  0.00    +0.000 C 
ATOM     19  O   UNK A   0      17.701  39.807  46.528  0.00  0.00    +0.000 OA
ATOM     20  H   UNK A   1      19.751  41.669  44.988  0.00  0.00    +0.000 HD
BRANCH  18  21
ATOM     21  C   UNK A   0      18.088  42.079  46.918  0.00  0.00    +0.000 A 
ATOM     22  C   UNK A   0      19.053  42.570  47.808  0.00  0.00    +0.000 A 
ATOM     23  C   UNK A   0      16.957  42.849  46.626  0.00  0.00    +0.000 A 
ATOM     24  C   UNK A   0      18.908  43.833  48.380  0.00  0.00    +0.000 A 
ATOM     25  C   UNK A   0      16.819  44.119  47.198  0.00  0.00    +0.000 A 
ATOM     26  C   UNK A   0      17.797  44.611  48.065  0.00  0.00    +0.000 A 
ENDBRANCH  18  21
ENDBRANCH   2  17
BRANCH   2  27
ATOM     27  C   UNK A   1      18.558  38.856  43.885  0.00  0.00    +0.000 C 
ATOM     28  O   UNK A   1      17.833  39.292  42.996  0.00  0.00    +0.000 OA
ATOM     29  N   GLY A   2      18.457  37.567  44.351  0.00  0.00    +0.000 N 
ATOM     30  H   GLY A   2      18.998  37.281  45.123  0.00  0.00    +0.000 HD
BRANCH  29  31
ATOM     31  CA  GLY A   2      17.556  36.625  43.710  0.00  0.00    +0.000 C 
BRANCH  31  32
ATOM     32  C   GLY A   2      16.613  36.000  44.726  0.00  0.00    +0.000 C 
ATOM     33  O   GLY A   2      16.311  34.813  44.740  0.00  0.00    +0.000 OA
ATOM     34  OXT GLY A   2      16.122  36.885  45.624  0.00  0.00    +0.000 OA
ENDBRANCH  31  32
ENDBRANCH  29  31
ENDBRANCH   2  27
TORSDOF 8
ENDMDL
MODEL 3
REMARK VINA RESULT:      -4.4      2.240      3.731
REMARK  Name = 323372
REMARK  8 active torsions:
REMARK  status: ('A' for Active; 'I' for Inactive)
REMARK    1  A    between atoms: C_3  and  O_5
REMARK    2  A    between atoms: O_5  and  C_8
REMARK    3  A    between atoms: C_14  and  C_15
REMARK    4  A    between atoms: C_16  and  N_17
REMARK    5  A    between atoms: C_16  and  C_18
REMARK    6  A    between atoms: C_19  and  C_23
REMARK    7  A    between atoms: N_21  and  CA_24
REMARK    8  A    between atoms: CA_24  and  C_27
REMARK                            x       y       z     vdW  Elec       q    Type
REMARK                         _______ _______ _______ _____ _____    ______ ____
ROOT
ATOM      1  C   UNK A   1      21.138  39.059  44.081  0.00  0.00    +0.000 C 
ATOM      2  C   UNK A   1      19.944  39.516  44.500  0.00  0.00    +0.000 C 
ENDROOT
BRANCH   1   8
ATOM      3  C   UNK A   1      24.841  40.089  45.910  0.00  0.00    +0.000 A 
ATOM      4  C   UNK A   1      24.060  41.091  45.334  0.00  0.00    +0.000 A 
ATOM      5  C   UNK A   1      24.538  38.747  45.661  0.00  0.00    +0.000 A 
ATOM      6  C   UNK A   1      22.890  40.750  44.641  0.00  0.00    +0.000 A 
ATOM      7  C   UNK A   1      23.359  38.410  44.986  0.00  0.00    +0.000 A 
ATOM      8  C   UNK A   1      22.502  39.411  44.512  0.00  0.00    +0.000 A 
BRANCH   3   9
ATOM      9  O   UNK A   1      25.883  40.477  46.728  0.00  0.00    +0.000 OA
BRANCH   9  12
ATOM     10 BR   UNK A   1      23.535  39.436  48.452  0.00  0.00    +0.000 Br
ATOM     11  C   UNK A   1      24.532  41.040  48.630  0.00  0.00    +0.000 A 
ATOM     12  C   UNK A   1      25.599  41.342  47.774  0.00  0.00    +0.000 A 
ATOM     13  C   UNK A   1      24.175  41.924  49.656  0.00  0.00    +0.000 A 
ATOM     14  C   UNK A   1      26.359  42.497  48.025  0.00  0.00    +0.000 A 
ATOM     15  C   UNK A   1      24.893  43.106  49.846  0.00  0.00    +0.000 A 
ATOM     16  C   UNK A   1      25.993  43.384  49.040  0.00  0.00    +0.000 A 
ENDBRANCH   9  12
ENDBRANCH   3   9
ENDBRANCH   1   8
BRANCH   2  17
ATOM     17  N   UNK A   1      19.733  40.372  45.569  0.00  0.00    +0.000 N 
ATOM     18  C   UNK A   0      19.428  41.708  45.374  0.00  0.00    +0.000 C 
ATOM     19  O   UNK A   0      19.424  42.265  44.279  0.00  0.00    +0.000 OA
ATOM     20  H   UNK A   1      19.802  40.023  46.487  0.00  0.00    +0.000 HD
BRANCH  18  21
ATOM     21  C   UNK A   0      19.212  42.533  46.592  0.00  0.00    +0.000 A 
ATOM     22  C   UNK A   0      18.263  43.562  46.519  0.00  0.00    +0.000 A 
ATOM     23  C   UNK A   0      19.839  42.251  47.810  0.00  0.00    +0.000 A 
ATOM     24  C   UNK A   0      17.917  44.285  47.659  0.00  0.00    +0.000 A 
ATOM     25  C   UNK A   0      19.484  42.976  48.953  0.00  0.00    +0.000 A 
ATOM     26  C   UNK A   0      18.519  43.982  48.879  0.00  0.00    +0.000 A 
ENDBRANCH  18  21
ENDBRANCH   2  17
BRANCH   2  27
ATOM     27  C   UNK A   1      18.742  39.056  43.701  0.00  0.00    +0.000 C 
ATOM     28  O   UNK A   1      18.413  37.878  43.600  0.00  0.00    +0.000 OA
ATOM     29  N   GLY A   2      18.019  40.074  43.126  0.00  0.00    +0.000 N 
ATOM     30  H   GLY A   2      18.362  40.997  43.157  0.00  0.00    +0.000 HD
BRANCH  29  31
ATOM     31  CA  GLY A   2      16.751  39.795  42.474  0.00  0.00    +0.000 C 
BRANCH  31  32
ATOM     32  C   GLY A   2      16.054  41.084  42.069  0.00  0.00    +0.000 C 
ATOM     33  O   GLY A   2      15.285  41.177  41.121  0.00  0.00    +0.000 OA
ATOM     34  OXT GLY A   2      16.368  42.139  42.856  0.00  0.00    +0.000 OA
ENDBRANCH  31  32
ENDBRANCH  29  31
ENDBRANCH   2  27
TORSDOF 8
ENDMDL
MODEL 4
REMARK VINA RESULT:      -3.5      3.647      8.627
REMARK  Name = 323372
REMARK  8 active torsions:
REMARK  status: ('A' for Active; 'I' for Inactive)
REMARK    1  A    between atoms: C_3  and  O_5
REMARK    2  A    between atoms: O_5  and  C_8
REMARK    3  A    between atoms: C_14  and  C_15
REMARK    4  A    between atoms: C_16  and  N_17
REMARK    5  A    between atoms: C_16  and  C_18
REMARK    6  A    between atoms: C_19  and  C_23
REMARK    7  A    between atoms: N_21  and  CA_24
REMARK    8  A    between atoms: CA_24  and  C_27
REMARK                            x       y       z     vdW  Elec       q    Type
REMARK                         _______ _______ _______ _____ _____    ______ ____
ROOT
ATOM      1  C   UNK A   1      21.127  42.843  49.077  0.00  0.00    +0.000 C 
ATOM      2  C   UNK A   1      22.243  42.249  48.616  0.00  0.00    +0.000 C 
ENDROOT
BRANCH   1   8
ATOM      3  C   UNK A   1      17.437  42.681  46.961  0.00  0.00    +0.000 A 
ATOM      4  C   UNK A   1      18.144  43.882  47.013  0.00  0.00    +0.000 A 
ATOM      5  C   UNK A   1      17.802  41.626  47.802  0.00  0.00    +0.000 A 
ATOM      6  C   UNK A   1      19.306  43.972  47.790  0.00  0.00    +0.000 A 
ATOM      7  C   UNK A   1      18.975  41.712  48.562  0.00  0.00    +0.000 A 
ATOM      8  C   UNK A   1      19.760  42.871  48.526  0.00  0.00    +0.000 A 
BRANCH   3   9
ATOM      9  O   UNK A   1      16.403  42.583  46.052  0.00  0.00    +0.000 OA
BRANCH   9  12
ATOM     10 BR   UNK A   1      16.169  39.508  46.299  0.00  0.00    +0.000 Br
ATOM     11  C   UNK A   1      16.638  40.556  44.788  0.00  0.00    +0.000 A 
ATOM     12  C   UNK A   1      16.661  41.955  44.842  0.00  0.00    +0.000 A 
ATOM     13  C   UNK A   1      16.959  39.887  43.600  0.00  0.00    +0.000 A 
ATOM     14  C   UNK A   1      16.917  42.671  43.661  0.00  0.00    +0.000 A 
ATOM     15  C   UNK A   1      17.286  40.612  42.453  0.00  0.00    +0.000 A 
ATOM     16  C   UNK A   1      17.251  42.003  42.480  0.00  0.00    +0.000 A 
ENDBRANCH   9  12
ENDBRANCH   3   9
ENDBRANCH   1   8
BRANCH   2  17
ATOM     17  N   UNK A   1      22.316  41.391  47.530  0.00  0.00    +0.000 N 
ATOM     18  C   UNK A   0      22.192  41.857  46.233  0.00  0.00    +0.000 C 
ATOM     19  O   UNK A   0      21.907  43.015  45.937  0.00  0.00    +0.000 OA
ATOM     20  H   UNK A   1      22.459  40.430  47.685  0.00  0.00    +0.000 HD
BRANCH  18  21
ATOM     21  C   UNK A   0      22.297  40.850  45.144  0.00  0.00    +0.000 A 
ATOM     22  C   UNK A   0      23.342  39.919  45.219  0.00  0.00    +0.000 A 
ATOM     23  C   UNK A   0      21.342  40.743  44.127  0.00  0.00    +0.000 A 
ATOM     24  C   UNK A   0      23.419  38.869  44.306  0.00  0.00    +0.000 A 
ATOM     25  C   UNK A   0      21.421  39.683  43.216  0.00  0.00    +0.000 A 
ATOM     26  C   UNK A   0      22.451  38.745  43.312  0.00  0.00    +0.000 A 
ENDBRANCH  18  21
ENDBRANCH   2  17
BRANCH   2  27
ATOM     27  C   UNK A   1      23.523  42.584  49.355  0.00  0.00    +0.000 C 
ATOM     28  O   UNK A   1      23.555  42.871  50.547  0.00  0.00    +0.000 OA
ATOM     29  N   GLY A   2      24.659  42.498  48.586  0.00  0.00    +0.000 N 
ATOM     30  H   GLY A   2      24.586  42.350  47.616  0.00  0.00    +0.000 HD
BRANCH  29  31
ATOM     31  CA  GLY A   2      25.970  42.627  49.201  0.00  0.00    +0.000 C 
BRANCH  31  32
ATOM     32  C   GLY A   2      26.921  41.562  48.677  0.00  0.00    +0.000 C 
ATOM     33  O   GLY A   2      27.946  41.218  49.251  0.00  0.00    +0.000 OA
ATOM     34  OXT GLY A   2      26.534  41.025  47.497  0.00  0.00    +0.000 OA
ENDBRANCH  31  32
ENDBRANCH  29  31
ENDBRANCH   2  27
TORSDOF 8
ENDMDL
MODEL 5
REMARK VINA RESULT:      -3.4      1.328      2.066
REMARK  Name = 323372
REMARK  8 active torsions:
REMARK  status: ('A' for Active; 'I' for Inactive)
REMARK    1  A    between atoms: C_3  and  O_5
REMARK    2  A    between atoms: O_5  and  C_8
REMARK    3  A    between atoms: C_14  and  C_15
REMARK    4  A    between atoms: C_16  and  N_17
REMARK    5  A    between atoms: C_16  and  C_18
REMARK    6  A    between atoms: C_19  and  C_23
REMARK    7  A    between atoms: N_21  and  CA_24
REMARK    8  A    between atoms: CA_24  and  C_27
REMARK                            x       y       z     vdW  Elec       q    Type
REMARK                         _______ _______ _______ _____ _____    ______ ____
ROOT
ATOM      1  C   UNK A   1      20.500  41.829  43.152  0.00  0.00    +0.000 C 
ATOM      2  C   UNK A   1      19.188  41.538  43.072  0.00  0.00    +0.000 C 
ENDROOT
BRANCH   1   8
ATOM      3  C   UNK A   1      23.834  40.944  45.646  0.00  0.00    +0.000 A 
ATOM      4  C   UNK A   1      23.613  40.179  44.501  0.00  0.00    +0.000 A 
ATOM      5  C   UNK A   1      22.836  41.812  46.101  0.00  0.00    +0.000 A 
ATOM      6  C   UNK A   1      22.464  40.396  43.729  0.00  0.00    +0.000 A 
ATOM      7  C   UNK A   1      21.699  42.041  45.318  0.00  0.00    +0.000 A 
ATOM      8  C   UNK A   1      21.527  41.368  44.102  0.00  0.00    +0.000 A 
BRANCH   3   9
ATOM      9  O   UNK A   1      25.056  40.821  46.276  0.00  0.00    +0.000 OA
BRANCH   9  12
ATOM     10 BR   UNK A   1      23.490  39.464  48.573  0.00  0.00    +0.000 Br
ATOM     11  C   UNK A   1      24.562  41.029  48.615  0.00  0.00    +0.000 A 
ATOM     12  C   UNK A   1      25.236  41.490  47.477  0.00  0.00    +0.000 A 
ATOM     13  C   UNK A   1      24.668  41.719  49.830  0.00  0.00    +0.000 A 
ATOM     14  C   UNK A   1      26.094  42.595  47.604  0.00  0.00    +0.000 A 
ATOM     15  C   UNK A   1      25.464  42.861  49.921  0.00  0.00    +0.000 A 
ATOM     16  C   UNK A   1      26.188  43.290  48.812  0.00  0.00    +0.000 A 
ENDBRANCH   9  12
ENDBRANCH   3   9
ENDBRANCH   1   8
BRANCH   2  17
ATOM     17  N   UNK A   1      18.520  40.595  43.836  0.00  0.00    +0.000 N 
ATOM     18  C   UNK A   0      17.660  40.970  44.855  0.00  0.00    +0.000 C 
ATOM     19  O   UNK A   0      17.499  42.127  45.234  0.00  0.00    +0.000 OA
ATOM     20  H   UNK A   1      18.659  39.638  43.652  0.00  0.00    +0.000 HD
BRANCH  18  21
ATOM     21  C   UNK A   0      16.988  39.876  45.603  0.00  0.00    +0.000 A 
ATOM     22  C   UNK A   0      16.953  38.608  45.007  0.00  0.00    +0.000 A 
ATOM     23  C   UNK A   0      16.493  40.048  46.901  0.00  0.00    +0.000 A 
ATOM     24  C   UNK A   0      16.457  37.511  45.710  0.00  0.00    +0.000 A 
ATOM     25  C   UNK A   0      16.001  38.942  47.604  0.00  0.00    +0.000 A 
ATOM     26  C   UNK A   0      15.993  37.677  47.013  0.00  0.00    +0.000 A 
ENDBRANCH  18  21
ENDBRANCH   2  17
BRANCH   2  27
ATOM     27  C   UNK A   1      18.392  42.342  42.065  0.00  0.00    +0.000 C 
ATOM     28  O   UNK A   1      18.545  43.547  41.896  0.00  0.00    +0.000 OA
ATOM     29  N   GLY A   2      17.507  41.600  41.320  0.00  0.00    +0.000 N 
ATOM     30  H   GLY A   2      17.351  40.653  41.543  0.00  0.00    +0.000 HD
BRANCH  29  31
ATOM     31  CA  GLY A   2      16.801  42.206  40.204  0.00  0.00    +0.000 C 
BRANCH  31  32
ATOM     32  C   GLY A   2      15.543  41.420  39.868  0.00  0.00    +0.000 C 
ATOM     33  O   GLY A   2      15.108  41.279  38.732  0.00  0.00    +0.000 OA
ATOM     34  OXT GLY A   2      14.931  40.889  40.952  0.00  0.00    +0.000 OA
ENDBRANCH  31  32
ENDBRANCH  29  31
ENDBRANCH   2  27
TORSDOF 8
ENDMDL
