MODEL 1
REMARK VINA RESULT:      -8.3      0.000      0.000
REMARK  Name = 320380
REMARK  6 active torsions:
REMARK  status: ('A' for Active; 'I' for Inactive)
REMARK    1  A    between atoms: C_3  and  O_5
REMARK    2  A    between atoms: O_5  and  C_8
REMARK    3  A    between atoms: C_14  and  C_15
REMARK    4  A    between atoms: CA_16  and  N_17
REMARK    5  A    between atoms: CA_16  and  C_18
REMARK    6  A    between atoms: C_19  and  C_23
REMARK                            x       y       z     vdW  Elec       q    Type
REMARK                         _______ _______ _______ _____ _____    ______ ____
ROOT
ATOM      1  C   UNL     1      20.195  42.468  43.434  0.00  0.00    +0.000 C 
ATOM      2  CA  UNL     1      19.031  41.891  43.096  0.00  0.00    +0.000 C 
ENDROOT
BRANCH   1   8
ATOM      3  C   UNL     1      22.410  41.252  46.837  0.00  0.00    +0.000 A 
ATOM      4  C   UNL     1      21.958  42.568  46.755  0.00  0.00    +0.000 A 
ATOM      5  C   UNL     1      22.363  40.426  45.709  0.00  0.00    +0.000 A 
ATOM      6  C   UNL     1      21.312  43.006  45.595  0.00  0.00    +0.000 A 
ATOM      7  C   UNL     1      21.704  40.859  44.558  0.00  0.00    +0.000 A 
ATOM      8  C   UNL     1      21.133  42.137  44.513  0.00  0.00    +0.000 A 
BRANCH   3   9
ATOM      9  O   UNL     1      22.858  40.805  48.063  0.00  0.00    +0.000 OA
BRANCH   9  12
ATOM     10 BR   UNL     1      25.625  40.556  46.718  0.00  0.00    +0.000 Br
ATOM     11  C   UNL     1      25.129  41.540  48.263  0.00  0.00    +0.000 A 
ATOM     12  C   UNL     1      23.806  41.574  48.719  0.00  0.00    +0.000 A 
ATOM     13  C   UNL     1      26.131  42.241  48.946  0.00  0.00    +0.000 A 
ATOM     14  C   UNL     1      23.488  42.397  49.812  0.00  0.00    +0.000 A 
ATOM     15  C   UNL     1      25.812  42.994  50.078  0.00  0.00    +0.000 A 
ATOM     16  C   UNL     1      24.490  43.083  50.503  0.00  0.00    +0.000 A 
ENDBRANCH   9  12
ENDBRANCH   3   9
ENDBRANCH   1   8
BRANCH   2  17
ATOM     17  N   UNL     1      18.493  40.716  43.590  0.00  0.00    +0.000 N 
ATOM     18  C   UNL     1      17.885  40.584  44.826  0.00  0.00    +0.000 C 
ATOM     19  O   UNL     1      17.750  41.499  45.632  0.00  0.00    +0.000 OA
ATOM     20  H   UNL     1      18.546  39.916  43.020  0.00  0.00    +0.000 HD
BRANCH  18  21
ATOM     21  C   UNL     1      17.505  39.210  45.250  0.00  0.00    +0.000 A 
ATOM     22  C   UNL     1      16.608  38.962  46.290  0.00  0.00    +0.000 A 
ATOM     23  C   UNL     1      18.005  38.129  44.510  0.00  0.00    +0.000 A 
ATOM     24  F   UNL     1      16.091  39.972  47.007  0.00  0.00    +0.000 F 
ATOM     25  C   UNL     1      16.197  37.665  46.587  0.00  0.00    +0.000 A 
ATOM     26  C   UNL     1      17.596  36.826  44.805  0.00  0.00    +0.000 A 
ATOM     27  C   UNL     1      16.687  36.594  45.839  0.00  0.00    +0.000 A 
ENDBRANCH  18  21
ENDBRANCH   2  17
BRANCH   2  28
ATOM     28  C   UNL     1      18.214  42.636  42.078  0.00  0.00    +0.000 C 
ATOM     29  O   UNL     1      18.423  43.773  41.698  0.00  0.00    +0.000 OA
ATOM     30  OXT UNL     1      17.180  41.880  41.634  0.00  0.00    +0.000 OA
ENDBRANCH   2  28
TORSDOF 6
ENDMDL
MODEL 2
REMARK VINA RESULT:      -7.4      3.740      7.940
REMARK  Name = 320380
REMARK  6 active torsions:
REMARK  status: ('A' for Active; 'I' for Inactive)
REMARK    1  A    between atoms: C_3  and  O_5
REMARK    2  A    between atoms: O_5  and  C_8
REMARK    3  A    between atoms: C_14  and  C_15
REMARK    4  A    between atoms: CA_16  and  N_17
REMARK    5  A    between atoms: CA_16  and  C_18
REMARK    6  A    between atoms: C_19  and  C_23
REMARK                            x       y       z     vdW  Elec       q    Type
REMARK                         _______ _______ _______ _____ _____    ______ ____
ROOT
ATOM      1  C   UNL     1      23.189  38.953  44.644  0.00  0.00    +0.000 C 
ATOM      2  CA  UNL     1      23.832  38.832  45.816  0.00  0.00    +0.000 C 
ENDROOT
BRANCH   1   8
ATOM      3  C   UNL     1      20.091  41.734  43.851  0.00  0.00    +0.000 A 
ATOM      4  C   UNL     1      20.091  40.509  43.185  0.00  0.00    +0.000 A 
ATOM      5  C   UNL     1      21.223  42.143  44.562  0.00  0.00    +0.000 A 
ATOM      6  C   UNL     1      21.159  39.625  43.365  0.00  0.00    +0.000 A 
ATOM      7  C   UNL     1      22.281  41.253  44.754  0.00  0.00    +0.000 A 
ATOM      8  C   UNL     1      22.232  39.970  44.194  0.00  0.00    +0.000 A 
BRANCH   3   9
ATOM      9  O   UNL     1      18.935  42.485  43.806  0.00  0.00    +0.000 OA
BRANCH   9  12
ATOM     10 BR   UNL     1      16.797  40.274  44.065  0.00  0.00    +0.000 Br
ATOM     11  C   UNL     1      17.168  41.722  45.233  0.00  0.00    +0.000 A 
ATOM     12  C   UNL     1      18.211  42.621  44.980  0.00  0.00    +0.000 A 
ATOM     13  C   UNL     1      16.364  41.873  46.370  0.00  0.00    +0.000 A 
ATOM     14  C   UNL     1      18.495  43.613  45.933  0.00  0.00    +0.000 A 
ATOM     15  C   UNL     1      16.610  42.913  47.269  0.00  0.00    +0.000 A 
ATOM     16  C   UNL     1      17.683  43.774  47.058  0.00  0.00    +0.000 A 
ENDBRANCH   9  12
ENDBRANCH   3   9
ENDBRANCH   1   8
BRANCH   2  17
ATOM     17  N   UNL     1      23.878  39.744  46.855  0.00  0.00    +0.000 N 
ATOM     18  C   UNL     1      24.826  40.742  46.988  0.00  0.00    +0.000 C 
ATOM     19  O   UNL     1      25.742  40.938  46.196  0.00  0.00    +0.000 OA
ATOM     20  H   UNL     1      23.184  39.678  47.550  0.00  0.00    +0.000 HD
BRANCH  18  21
ATOM     21  C   UNL     1      24.807  41.530  48.250  0.00  0.00    +0.000 A 
ATOM     22  C   UNL     1      25.967  42.026  48.847  0.00  0.00    +0.000 A 
ATOM     23  C   UNL     1      23.562  41.856  48.806  0.00  0.00    +0.000 A 
ATOM     24  F   UNL     1      27.176  41.754  48.331  0.00  0.00    +0.000 F 
ATOM     25  C   UNL     1      25.899  42.848  49.969  0.00  0.00    +0.000 A 
ATOM     26  C   UNL     1      23.489  42.679  49.932  0.00  0.00    +0.000 A 
ATOM     27  C   UNL     1      24.657  43.181  50.510  0.00  0.00    +0.000 A 
ENDBRANCH  18  21
ENDBRANCH   2  17
BRANCH   2  28
ATOM     28  C   UNL     1      24.563  37.534  46.020  0.00  0.00    +0.000 C 
ATOM     29  O   UNL     1      25.587  37.202  45.451  0.00  0.00    +0.000 OA
ATOM     30  OXT UNL     1      23.925  36.750  46.922  0.00  0.00    +0.000 OA
ENDBRANCH   2  28
TORSDOF 6
ENDMDL
MODEL 3
REMARK VINA RESULT:      -6.8      3.039      8.040
REMARK  Name = 320380
REMARK  6 active torsions:
REMARK  status: ('A' for Active; 'I' for Inactive)
REMARK    1  A    between atoms: C_3  and  O_5
REMARK    2  A    between atoms: O_5  and  C_8
REMARK    3  A    between atoms: C_14  and  C_15
REMARK    4  A    between atoms: CA_16  and  N_17
REMARK    5  A    between atoms: CA_16  and  C_18
REMARK    6  A    between atoms: C_19  and  C_23
REMARK                            x       y       z     vdW  Elec       q    Type
REMARK                         _______ _______ _______ _____ _____    ______ ____
ROOT
ATOM      1  C   UNL     1      23.079  39.171  44.586  0.00  0.00    +0.000 C 
ATOM      2  CA  UNL     1      23.885  39.227  45.659  0.00  0.00    +0.000 C 
ENDROOT
BRANCH   1   8
ATOM      3  C   UNL     1      19.235  40.913  44.193  0.00  0.00    +0.000 A 
ATOM      4  C   UNL     1      19.639  39.943  43.276  0.00  0.00    +0.000 A 
ATOM      5  C   UNL     1      20.170  41.487  45.060  0.00  0.00    +0.000 A 
ATOM      6  C   UNL     1      20.939  39.433  43.338  0.00  0.00    +0.000 A 
ATOM      7  C   UNL     1      21.463  40.965  45.131  0.00  0.00    +0.000 A 
ATOM      8  C   UNL     1      21.839  39.903  44.300  0.00  0.00    +0.000 A 
BRANCH   3   9
ATOM      9  O   UNL     1      17.896  41.241  44.227  0.00  0.00    +0.000 OA
BRANCH   9  12
ATOM     10 BR   UNL     1      16.986  43.008  46.588  0.00  0.00    +0.000 Br
ATOM     11  C   UNL     1      16.617  41.178  46.252  0.00  0.00    +0.000 A 
ATOM     12  C   UNL     1      17.083  40.534  45.099  0.00  0.00    +0.000 A 
ATOM     13  C   UNL     1      15.859  40.475  47.196  0.00  0.00    +0.000 A 
ATOM     14  C   UNL     1      16.695  39.205  44.863  0.00  0.00    +0.000 A 
ATOM     15  C   UNL     1      15.546  39.131  46.985  0.00  0.00    +0.000 A 
ATOM     16  C   UNL     1      15.952  38.499  45.813  0.00  0.00    +0.000 A 
ENDBRANCH   9  12
ENDBRANCH   3   9
ENDBRANCH   1   8
BRANCH   2  17
ATOM     17  N   UNL     1      23.835  40.124  46.710  0.00  0.00    +0.000 N 
ATOM     18  C   UNL     1      24.759  41.129  46.936  0.00  0.00    +0.000 C 
ATOM     19  O   UNL     1      25.735  41.344  46.226  0.00  0.00    +0.000 OA
ATOM     20  H   UNL     1      23.086  40.042  47.343  0.00  0.00    +0.000 HD
BRANCH  18  21
ATOM     21  C   UNL     1      24.627  41.897  48.203  0.00  0.00    +0.000 A 
ATOM     22  C   UNL     1      23.394  42.152  48.806  0.00  0.00    +0.000 A 
ATOM     23  C   UNL     1      25.799  42.300  48.857  0.00  0.00    +0.000 A 
ATOM     24  F   UNL     1      22.249  41.762  48.222  0.00  0.00    +0.000 F 
ATOM     25  C   UNL     1      23.320  42.783  50.046  0.00  0.00    +0.000 A 
ATOM     26  C   UNL     1      25.730  42.933  50.100  0.00  0.00    +0.000 A 
ATOM     27  C   UNL     1      24.491  43.168  50.697  0.00  0.00    +0.000 A 
ENDBRANCH  18  21
ENDBRANCH   2  17
BRANCH   2  28
ATOM     28  C   UNL     1      24.948  38.166  45.722  0.00  0.00    +0.000 C 
ATOM     29  O   UNL     1      26.107  38.304  45.377  0.00  0.00    +0.000 OA
ATOM     30  OXT UNL     1      24.448  37.003  46.204  0.00  0.00    +0.000 OA
ENDBRANCH   2  28
TORSDOF 6
ENDMDL
MODEL 4
REMARK VINA RESULT:      -6.6      2.573      3.837
REMARK  Name = 320380
REMARK  6 active torsions:
REMARK  status: ('A' for Active; 'I' for Inactive)
REMARK    1  A    between atoms: C_3  and  O_5
REMARK    2  A    between atoms: O_5  and  C_8
REMARK    3  A    between atoms: C_14  and  C_15
REMARK    4  A    between atoms: CA_16  and  N_17
REMARK    5  A    between atoms: CA_16  and  C_18
REMARK    6  A    between atoms: C_19  and  C_23
REMARK                            x       y       z     vdW  Elec       q    Type
REMARK                         _______ _______ _______ _____ _____    ______ ____
ROOT
ATOM      1  C   UNL     1      20.469  39.216  44.003  0.00  0.00    +0.000 C 
ATOM      2  CA  UNL     1      19.277  39.775  44.270  0.00  0.00    +0.000 C 
ENDROOT
BRANCH   1   8
ATOM      3  C   UNL     1      24.295  40.333  45.442  0.00  0.00    +0.000 A 
ATOM      4  C   UNL     1      23.261  41.267  45.468  0.00  0.00    +0.000 A 
ATOM      5  C   UNL     1      24.147  39.146  44.718  0.00  0.00    +0.000 A 
ATOM      6  C   UNL     1      22.022  40.941  44.907  0.00  0.00    +0.000 A 
ATOM      7  C   UNL     1      22.905  38.816  44.173  0.00  0.00    +0.000 A 
ATOM      8  C   UNL     1      21.823  39.694  44.307  0.00  0.00    +0.000 A 
BRANCH   3   9
ATOM      9  O   UNL     1      25.428  40.614  46.178  0.00  0.00    +0.000 OA
BRANCH   9  12
ATOM     10 BR   UNL     1      23.439  39.168  48.042  0.00  0.00    +0.000 Br
ATOM     11  C   UNL     1      24.360  40.804  48.314  0.00  0.00    +0.000 A 
ATOM     12  C   UNL     1      25.266  41.303  47.369  0.00  0.00    +0.000 A 
ATOM     13  C   UNL     1      24.110  41.512  49.496  0.00  0.00    +0.000 A 
ATOM     14  C   UNL     1      25.986  42.469  47.673  0.00  0.00    +0.000 A 
ATOM     15  C   UNL     1      24.777  42.711  49.749  0.00  0.00    +0.000 A 
ATOM     16  C   UNL     1      25.725  43.184  48.845  0.00  0.00    +0.000 A 
ENDBRANCH   9  12
ENDBRANCH   3   9
ENDBRANCH   1   8
BRANCH   2  17
ATOM     17  N   UNL     1      19.018  40.883  45.055  0.00  0.00    +0.000 N 
ATOM     18  C   UNL     1      18.444  40.842  46.314  0.00  0.00    +0.000 C 
ATOM     19  O   UNL     1      18.096  39.813  46.883  0.00  0.00    +0.000 OA
ATOM     20  H   UNL     1      19.261  41.765  44.693  0.00  0.00    +0.000 HD
BRANCH  18  21
ATOM     21  C   UNL     1      18.101  42.146  46.943  0.00  0.00    +0.000 A 
ATOM     22  C   UNL     1      18.991  42.850  47.755  0.00  0.00    +0.000 A 
ATOM     23  C   UNL     1      16.863  42.725  46.630  0.00  0.00    +0.000 A 
ATOM     24  F   UNL     1      20.195  42.339  48.059  0.00  0.00    +0.000 F 
ATOM     25  C   UNL     1      18.672  44.116  48.239  0.00  0.00    +0.000 A 
ATOM     26  C   UNL     1      16.537  43.994  47.114  0.00  0.00    +0.000 A 
ATOM     27  C   UNL     1      17.444  44.693  47.913  0.00  0.00    +0.000 A 
ENDBRANCH  18  21
ENDBRANCH   2  17
BRANCH   2  28
ATOM     28  C   UNL     1      18.096  39.122  43.607  0.00  0.00    +0.000 C 
ATOM     29  O   UNL     1      17.219  39.702  42.994  0.00  0.00    +0.000 OA
ATOM     30  OXT UNL     1      18.114  37.780  43.790  0.00  0.00    +0.000 OA
ENDBRANCH   2  28
TORSDOF 6
ENDMDL
MODEL 5
REMARK VINA RESULT:      -6.6      3.038      7.127
REMARK  Name = 320380
REMARK  6 active torsions:
REMARK  status: ('A' for Active; 'I' for Inactive)
REMARK    1  A    between atoms: C_3  and  O_5
REMARK    2  A    between atoms: O_5  and  C_8
REMARK    3  A    between atoms: C_14  and  C_15
REMARK    4  A    between atoms: CA_16  and  N_17
REMARK    5  A    between atoms: CA_16  and  C_18
REMARK    6  A    between atoms: C_19  and  C_23
REMARK                            x       y       z     vdW  Elec       q    Type
REMARK                         _______ _______ _______ _____ _____    ______ ____
ROOT
ATOM      1  C   UNL     1      23.998  40.773  45.894  0.00  0.00    +0.000 C 
ATOM      2  CA  UNL     1      23.769  41.583  46.940  0.00  0.00    +0.000 C 
ENDROOT
BRANCH   1   8
ATOM      3  C   UNL     1      20.862  39.393  43.400  0.00  0.00    +0.000 A 
ATOM      4  C   UNL     1      21.586  38.471  44.154  0.00  0.00    +0.000 A 
ATOM      5  C   UNL     1      21.326  40.705  43.266  0.00  0.00    +0.000 A 
ATOM      6  C   UNL     1      22.684  38.902  44.904  0.00  0.00    +0.000 A 
ATOM      7  C   UNL     1      22.413  41.138  44.028  0.00  0.00    +0.000 A 
ATOM      8  C   UNL     1      23.068  40.247  44.888  0.00  0.00    +0.000 A 
BRANCH   3   9
ATOM      9  O   UNL     1      19.675  38.968  42.839  0.00  0.00    +0.000 OA
BRANCH   9  12
ATOM     10 BR   UNL     1      17.884  41.480  42.871  0.00  0.00    +0.000 Br
ATOM     11  C   UNL     1      17.696  39.866  43.849  0.00  0.00    +0.000 A 
ATOM     12  C   UNL     1      18.589  38.799  43.684  0.00  0.00    +0.000 A 
ATOM     13  C   UNL     1      16.632  39.762  44.752  0.00  0.00    +0.000 A 
ATOM     14  C   UNL     1      18.340  37.597  44.366  0.00  0.00    +0.000 A 
ATOM     15  C   UNL     1      16.442  38.587  45.482  0.00  0.00    +0.000 A 
ATOM     16  C   UNL     1      17.287  37.500  45.279  0.00  0.00    +0.000 A 
ENDBRANCH   9  12
ENDBRANCH   3   9
ENDBRANCH   1   8
BRANCH   2  17
ATOM     17  N   UNL     1      22.606  42.269  47.242  0.00  0.00    +0.000 N 
ATOM     18  C   UNL     1      21.367  41.680  47.424  0.00  0.00    +0.000 C 
ATOM     19  O   UNL     1      21.154  40.475  47.339  0.00  0.00    +0.000 OA
ATOM     20  H   UNL     1      22.664  43.247  47.335  0.00  0.00    +0.000 HD
BRANCH  18  21
ATOM     21  C   UNL     1      20.203  42.591  47.588  0.00  0.00    +0.000 A 
ATOM     22  C   UNL     1      19.580  43.222  46.511  0.00  0.00    +0.000 A 
ATOM     23  C   UNL     1      19.661  42.745  48.872  0.00  0.00    +0.000 A 
ATOM     24  F   UNL     1      20.055  43.081  45.263  0.00  0.00    +0.000 F 
ATOM     25  C   UNL     1      18.427  43.983  46.695  0.00  0.00    +0.000 A 
ATOM     26  C   UNL     1      18.506  43.508  49.062  0.00  0.00    +0.000 A 
ATOM     27  C   UNL     1      17.885  44.121  47.972  0.00  0.00    +0.000 A 
ENDBRANCH  18  21
ENDBRANCH   2  17
BRANCH   2  28
ATOM     28  C   UNL     1      24.913  41.733  47.903  0.00  0.00    +0.000 C 
ATOM     29  O   UNL     1      26.078  41.472  47.663  0.00  0.00    +0.000 OA
ATOM     30  OXT UNL     1      24.484  42.187  49.105  0.00  0.00    +0.000 OA
ENDBRANCH   2  28
TORSDOF 6
ENDMDL
MODEL 6
REMARK VINA RESULT:      -6.3      2.445      3.730
REMARK  Name = 320380
REMARK  6 active torsions:
REMARK  status: ('A' for Active; 'I' for Inactive)
REMARK    1  A    between atoms: C_3  and  O_5
REMARK    2  A    between atoms: O_5  and  C_8
REMARK    3  A    between atoms: C_14  and  C_15
REMARK    4  A    between atoms: CA_16  and  N_17
REMARK    5  A    between atoms: CA_16  and  C_18
REMARK    6  A    between atoms: C_19  and  C_23
REMARK                            x       y       z     vdW  Elec       q    Type
REMARK                         _______ _______ _______ _____ _____    ______ ____
ROOT
ATOM      1  C   UNL     1      20.354  38.991  44.091  0.00  0.00    +0.000 C 
ATOM      2  CA  UNL     1      19.125  39.420  44.419  0.00  0.00    +0.000 C 
ENDROOT
BRANCH   1   8
ATOM      3  C   UNL     1      23.968  40.400  45.799  0.00  0.00    +0.000 A 
ATOM      4  C   UNL     1      22.996  41.321  45.410  0.00  0.00    +0.000 A 
ATOM      5  C   UNL     1      23.867  39.065  45.396  0.00  0.00    +0.000 A 
ATOM      6  C   UNL     1      21.843  40.874  44.757  0.00  0.00    +0.000 A 
ATOM      7  C   UNL     1      22.708  38.618  44.759  0.00  0.00    +0.000 A 
ATOM      8  C   UNL     1      21.670  39.514  44.478  0.00  0.00    +0.000 A 
BRANCH   3   9
ATOM      9  O   UNL     1      24.987  40.852  46.612  0.00  0.00    +0.000 OA
BRANCH   9  12
ATOM     10 BR   UNL     1      27.474  41.592  48.281  0.00  0.00    +0.000 Br
ATOM     11  C   UNL     1      25.644  41.924  48.651  0.00  0.00    +0.000 A 
ATOM     12  C   UNL     1      24.634  41.549  47.757  0.00  0.00    +0.000 A 
ATOM     13  C   UNL     1      25.320  42.560  49.856  0.00  0.00    +0.000 A 
ATOM     14  C   UNL     1      23.307  41.908  48.045  0.00  0.00    +0.000 A 
ATOM     15  C   UNL     1      23.988  42.842  50.165  0.00  0.00    +0.000 A 
ATOM     16  C   UNL     1      22.983  42.528  49.255  0.00  0.00    +0.000 A 
ENDBRANCH   9  12
ENDBRANCH   3   9
ENDBRANCH   1   8
BRANCH   2  17
ATOM     17  N   UNL     1      18.785  40.383  45.351  0.00  0.00    +0.000 N 
ATOM     18  C   UNL     1      18.624  41.729  45.074  0.00  0.00    +0.000 C 
ATOM     19  O   UNL     1      18.765  42.229  43.963  0.00  0.00    +0.000 OA
ATOM     20  H   UNL     1      18.645  40.089  46.280  0.00  0.00    +0.000 HD
BRANCH  18  21
ATOM     21  C   UNL     1      18.409  42.637  46.232  0.00  0.00    +0.000 A 
ATOM     22  C   UNL     1      17.318  43.503  46.320  0.00  0.00    +0.000 A 
ATOM     23  C   UNL     1      19.296  42.549  47.315  0.00  0.00    +0.000 A 
ATOM     24  F   UNL     1      16.435  43.600  45.314  0.00  0.00    +0.000 F 
ATOM     25  C   UNL     1      17.095  44.260  47.468  0.00  0.00    +0.000 A 
ATOM     26  C   UNL     1      19.078  43.307  48.467  0.00  0.00    +0.000 A 
ATOM     27  C   UNL     1      17.973  44.157  48.547  0.00  0.00    +0.000 A 
ENDBRANCH  18  21
ENDBRANCH   2  17
BRANCH   2  28
ATOM     28  C   UNL     1      17.996  38.788  43.653  0.00  0.00    +0.000 C 
ATOM     29  O   UNL     1      17.149  39.388  43.017  0.00  0.00    +0.000 OA
ATOM     30  OXT UNL     1      18.022  37.439  43.770  0.00  0.00    +0.000 OA
ENDBRANCH   2  28
TORSDOF 6
ENDMDL
MODEL 7
REMARK VINA RESULT:      -6.1      1.942      2.492
REMARK  Name = 320380
REMARK  6 active torsions:
REMARK  status: ('A' for Active; 'I' for Inactive)
REMARK    1  A    between atoms: C_3  and  O_5
REMARK    2  A    between atoms: O_5  and  C_8
REMARK    3  A    between atoms: C_14  and  C_15
REMARK    4  A    between atoms: CA_16  and  N_17
REMARK    5  A    between atoms: CA_16  and  C_18
REMARK    6  A    between atoms: C_19  and  C_23
REMARK                            x       y       z     vdW  Elec       q    Type
REMARK                         _______ _______ _______ _____ _____    ______ ____
ROOT
ATOM      1  C   UNL     1      18.737  43.434  45.309  0.00  0.00    +0.000 C 
ATOM      2  CA  UNL     1      17.764  42.730  44.709  0.00  0.00    +0.000 C 
ENDROOT
BRANCH   1   8
ATOM      3  C   UNL     1      21.840  41.561  47.505  0.00  0.00    +0.000 A 
ATOM      4  C   UNL     1      20.590  41.722  48.099  0.00  0.00    +0.000 A 
ATOM      5  C   UNL     1      22.141  42.233  46.316  0.00  0.00    +0.000 A 
ATOM      6  C   UNL     1      19.589  42.425  47.422  0.00  0.00    +0.000 A 
ATOM      7  C   UNL     1      21.136  42.921  45.634  0.00  0.00    +0.000 A 
ATOM      8  C   UNL     1      19.841  42.980  46.163  0.00  0.00    +0.000 A 
BRANCH   3   9
ATOM      9  O   UNL     1      22.728  40.697  48.111  0.00  0.00    +0.000 OA
BRANCH   9  12
ATOM     10 BR   UNL     1      23.754  42.678  50.242  0.00  0.00    +0.000 Br
ATOM     11  C   UNL     1      24.699  41.865  48.812  0.00  0.00    +0.000 A 
ATOM     12  C   UNL     1      24.082  40.950  47.951  0.00  0.00    +0.000 A 
ATOM     13  C   UNL     1      26.045  42.207  48.634  0.00  0.00    +0.000 A 
ATOM     14  C   UNL     1      24.860  40.312  46.972  0.00  0.00    +0.000 A 
ATOM     15  C   UNL     1      26.787  41.621  47.607  0.00  0.00    +0.000 A 
ATOM     16  C   UNL     1      26.199  40.664  46.784  0.00  0.00    +0.000 A 
ENDBRANCH   9  12
ENDBRANCH   3   9
ENDBRANCH   1   8
BRANCH   2  17
ATOM     17  N   UNL     1      17.651  41.355  44.611  0.00  0.00    +0.000 N 
ATOM     18  C   UNL     1      16.976  40.552  45.512  0.00  0.00    +0.000 C 
ATOM     19  O   UNL     1      16.393  40.967  46.508  0.00  0.00    +0.000 OA
ATOM     20  H   UNL     1      18.083  40.917  43.843  0.00  0.00    +0.000 HD
BRANCH  18  21
ATOM     21  C   UNL     1      17.093  39.081  45.326  0.00  0.00    +0.000 A 
ATOM     22  C   UNL     1      18.044  38.499  44.487  0.00  0.00    +0.000 A 
ATOM     23  C   UNL     1      16.269  38.250  46.099  0.00  0.00    +0.000 A 
ATOM     24  F   UNL     1      18.867  39.261  43.748  0.00  0.00    +0.000 F 
ATOM     25  C   UNL     1      18.192  37.115  44.422  0.00  0.00    +0.000 A 
ATOM     26  C   UNL     1      16.413  36.862  46.036  0.00  0.00    +0.000 A 
ATOM     27  C   UNL     1      17.379  36.295  45.203  0.00  0.00    +0.000 A 
ENDBRANCH  18  21
ENDBRANCH   2  17
BRANCH   2  28
ATOM     28  C   UNL     1      16.659  43.547  44.099  0.00  0.00    +0.000 C 
ATOM     29  O   UNL     1      16.234  44.601  44.536  0.00  0.00    +0.000 OA
ATOM     30  OXT UNL     1      16.168  42.950  42.987  0.00  0.00    +0.000 OA
ENDBRANCH   2  28
TORSDOF 6
ENDMDL
MODEL 8
REMARK VINA RESULT:      -5.8      2.046      2.895
REMARK  Name = 320380
REMARK  6 active torsions:
REMARK  status: ('A' for Active; 'I' for Inactive)
REMARK    1  A    between atoms: C_3  and  O_5
REMARK    2  A    between atoms: O_5  and  C_8
REMARK    3  A    between atoms: C_14  and  C_15
REMARK    4  A    between atoms: CA_16  and  N_17
REMARK    5  A    between atoms: CA_16  and  C_18
REMARK    6  A    between atoms: C_19  and  C_23
REMARK                            x       y       z     vdW  Elec       q    Type
REMARK                         _______ _______ _______ _____ _____    ______ ____
ROOT
ATOM      1  C   UNL     1      18.989  43.634  46.048  0.00  0.00    +0.000 C 
ATOM      2  CA  UNL     1      17.911  42.901  45.724  0.00  0.00    +0.000 C 
ENDROOT
BRANCH   1   8
ATOM      3  C   UNL     1      22.418  41.905  47.840  0.00  0.00    +0.000 A 
ATOM      4  C   UNL     1      21.316  42.209  48.637  0.00  0.00    +0.000 A 
ATOM      5  C   UNL     1      22.494  42.398  46.533  0.00  0.00    +0.000 A 
ATOM      6  C   UNL     1      20.218  42.868  48.075  0.00  0.00    +0.000 A 
ATOM      7  C   UNL     1      21.391  43.042  45.970  0.00  0.00    +0.000 A 
ATOM      8  C   UNL     1      20.229  43.238  46.726  0.00  0.00    +0.000 A 
BRANCH   3   9
ATOM      9  O   UNL     1      23.387  41.082  48.377  0.00  0.00    +0.000 OA
BRANCH   9  12
ATOM     10 BR   UNL     1      26.106  42.051  47.286  0.00  0.00    +0.000 Br
ATOM     11  C   UNL     1      25.181  40.435  46.926  0.00  0.00    +0.000 A 
ATOM     12  C   UNL     1      23.960  40.135  47.543  0.00  0.00    +0.000 A 
ATOM     13  C   UNL     1      25.753  39.536  46.017  0.00  0.00    +0.000 A 
ATOM     14  C   UNL     1      23.373  38.881  47.308  0.00  0.00    +0.000 A 
ATOM     15  C   UNL     1      25.118  38.326  45.734  0.00  0.00    +0.000 A 
ATOM     16  C   UNL     1      23.936  37.992  46.389  0.00  0.00    +0.000 A 
ENDBRANCH   9  12
ENDBRANCH   3   9
ENDBRANCH   1   8
BRANCH   2  17
ATOM     17  N   UNL     1      17.764  41.529  45.806  0.00  0.00    +0.000 N 
ATOM     18  C   UNL     1      17.863  40.659  44.735  0.00  0.00    +0.000 C 
ATOM     19  O   UNL     1      18.094  41.004  43.581  0.00  0.00    +0.000 OA
ATOM     20  H   UNL     1      17.577  41.143  46.692  0.00  0.00    +0.000 HD
BRANCH  18  21
ATOM     21  C   UNL     1      17.522  39.233  44.988  0.00  0.00    +0.000 A 
ATOM     22  C   UNL     1      16.469  38.844  45.818  0.00  0.00    +0.000 A 
ATOM     23  C   UNL     1      18.237  38.249  44.291  0.00  0.00    +0.000 A 
ATOM     24  F   UNL     1      15.746  39.758  46.485  0.00  0.00    +0.000 F 
ATOM     25  C   UNL     1      16.115  37.503  45.945  0.00  0.00    +0.000 A 
ATOM     26  C   UNL     1      17.887  36.903  44.416  0.00  0.00    +0.000 A 
ATOM     27  C   UNL     1      16.821  36.530  45.237  0.00  0.00    +0.000 A 
ENDBRANCH  18  21
ENDBRANCH   2  17
BRANCH   2  28
ATOM     28  C   UNL     1      16.721  43.684  45.242  0.00  0.00    +0.000 C 
ATOM     29  O   UNL     1      16.376  43.803  44.081  0.00  0.00    +0.000 OA
ATOM     30  OXT UNL     1      16.071  44.270  46.276  0.00  0.00    +0.000 OA
ENDBRANCH   2  28
TORSDOF 6
ENDMDL
