MODEL 1
REMARK VINA RESULT:      -7.7      0.000      0.000
REMARK  Name = 323201
REMARK  8 active torsions:
REMARK  status: ('A' for Active; 'I' for Inactive)
REMARK    1  A    between atoms: C_3  and  O_5
REMARK    2  A    between atoms: O_5  and  C_8
REMARK    3  A    between atoms: C_15  and  C_16
REMARK    4  A    between atoms: CA_17  and  N_18
REMARK    5  A    between atoms: CA_17  and  C_19
REMARK    6  A    between atoms: C_20  and  C_24
REMARK    7  A    between atoms: C_24  and  C_25
REMARK    8  A    between atoms: C_25  and  C_26
REMARK                            x       y       z     vdW  Elec       q    Type
REMARK                         _______ _______ _______ _____ _____    ______ ____
ROOT
ATOM      1  C   UNL     1      22.670  42.219  48.731  0.00  0.00    +0.000 C 
ATOM      2  CA  UNL     1      23.975  42.051  48.442  0.00  0.00    +0.000 C 
ENDROOT
BRANCH   1   8
ATOM      3  C   UNL     1      18.908  41.371  46.945  0.00  0.00    +0.000 A 
ATOM      4  C   UNL     1      19.893  40.381  46.986  0.00  0.00    +0.000 A 
ATOM      5  C   UNL     1      19.268  42.692  47.196  0.00  0.00    +0.000 A 
ATOM      6  C   UNL     1      21.167  40.661  47.473  0.00  0.00    +0.000 A 
ATOM      7  C   UNL     1      20.527  42.967  47.733  0.00  0.00    +0.000 A 
ATOM      8  C   UNL     1      21.460  41.940  47.945  0.00  0.00    +0.000 A 
BRANCH   3   9
ATOM      9  O   UNL     1      17.597  41.117  46.626  0.00  0.00    +0.000 OA
BRANCH   9  12
ATOM     10 BR   UNL     1      17.045  38.297  45.601  0.00  0.00    +0.000 Br
ATOM     11  C   UNL     1      16.947  39.944  44.662  0.00  0.00    +0.000 A 
ATOM     12  C   UNL     1      17.176  41.168  45.306  0.00  0.00    +0.000 A 
ATOM     13  C   UNL     1      16.618  39.902  43.304  0.00  0.00    +0.000 A 
ATOM     14  C   UNL     1      17.048  42.357  44.566  0.00  0.00    +0.000 A 
ATOM     15  C   UNL     1      16.505  41.086  42.595  0.00  0.00    +0.000 A 
ATOM     16  C   UNL     1      16.694  42.318  43.215  0.00  0.00    +0.000 A 
ATOM     17  F   UNL     1      16.217  41.050  41.285  0.00  0.00    +0.000 F 
ENDBRANCH   9  12
ENDBRANCH   3   9
ENDBRANCH   1   8
BRANCH   2  18
ATOM     18  N   UNL     1      24.500  41.536  47.256  0.00  0.00    +0.000 N 
ATOM     19  C   UNL     1      24.545  40.195  46.895  0.00  0.00    +0.000 C 
ATOM     20  O   UNL     1      24.060  39.258  47.490  0.00  0.00    +0.000 OA
ATOM     21  H   UNL     1      24.873  42.183  46.615  0.00  0.00    +0.000 HD
BRANCH  19  22
ATOM     22  C   UNL     1      25.180  39.928  45.533  0.00  0.00    +0.000 C 
BRANCH  22  23
ATOM     23  C   UNL     1      24.344  40.622  44.454  0.00  0.00    +0.000 C 
BRANCH  23  24
ATOM     24  C   UNL     1      22.838  40.389  44.564  0.00  0.00    +0.000 C 
ATOM     25  C   UNL     1      22.405  39.064  43.921  0.00  0.00    +0.000 C 
ATOM     26  C   UNL     1      21.985  41.397  43.799  0.00  0.00    +0.000 C 
ATOM     27  C   UNL     1      20.907  39.218  43.660  0.00  0.00    +0.000 C 
ATOM     28  C   UNL     1      20.622  40.719  43.714  0.00  0.00    +0.000 C 
ENDBRANCH  23  24
ENDBRANCH  22  23
ENDBRANCH  19  22
ENDBRANCH   2  18
BRANCH   2  29
ATOM     29  C   UNL     1      24.910  42.494  49.560  0.00  0.00    +0.000 C 
ATOM     30  O   UNL     1      24.549  42.922  50.643  0.00  0.00    +0.000 OA
ATOM     31  OXT UNL     1      26.218  42.438  49.219  0.00  0.00    +0.000 OA
ENDBRANCH   2  29
TORSDOF 8
ENDMDL
MODEL 2
REMARK VINA RESULT:      -7.4      3.817      7.948
REMARK  Name = 323201
REMARK  8 active torsions:
REMARK  status: ('A' for Active; 'I' for Inactive)
REMARK    1  A    between atoms: C_3  and  O_5
REMARK    2  A    between atoms: O_5  and  C_8
REMARK    3  A    between atoms: C_15  and  C_16
REMARK    4  A    between atoms: CA_17  and  N_18
REMARK    5  A    between atoms: CA_17  and  C_19
REMARK    6  A    between atoms: C_20  and  C_24
REMARK    7  A    between atoms: C_24  and  C_25
REMARK    8  A    between atoms: C_25  and  C_26
REMARK                            x       y       z     vdW  Elec       q    Type
REMARK                         _______ _______ _______ _____ _____    ______ ____
ROOT
ATOM      1  C   UNL     1      18.917  41.194  42.828  0.00  0.00    +0.000 C 
ATOM      2  CA  UNL     1      17.609  40.970  43.066  0.00  0.00    +0.000 C 
ENDROOT
BRANCH   1   8
ATOM      3  C   UNL     1      22.010  40.432  45.641  0.00  0.00    +0.000 A 
ATOM      4  C   UNL     1      21.378  41.678  45.628  0.00  0.00    +0.000 A 
ATOM      5  C   UNL     1      21.847  39.582  44.551  0.00  0.00    +0.000 A 
ATOM      6  C   UNL     1      20.433  41.990  44.654  0.00  0.00    +0.000 A 
ATOM      7  C   UNL     1      20.864  39.868  43.602  0.00  0.00    +0.000 A 
ATOM      8  C   UNL     1      20.097  41.041  43.689  0.00  0.00    +0.000 A 
BRANCH   3   9
ATOM      9  O   UNL     1      22.827  40.012  46.661  0.00  0.00    +0.000 OA
BRANCH   9  12
ATOM     10 BR   UNL     1      25.739  40.385  45.832  0.00  0.00    +0.000 Br
ATOM     11  C   UNL     1      24.807  41.171  47.288  0.00  0.00    +0.000 A 
ATOM     12  C   UNL     1      23.439  40.937  47.492  0.00  0.00    +0.000 A 
ATOM     13  C   UNL     1      25.523  42.012  48.144  0.00  0.00    +0.000 A 
ATOM     14  C   UNL     1      22.795  41.581  48.564  0.00  0.00    +0.000 A 
ATOM     15  C   UNL     1      24.868  42.628  49.197  0.00  0.00    +0.000 A 
ATOM     16  C   UNL     1      23.505  42.441  49.405  0.00  0.00    +0.000 A 
ATOM     17  F   UNL     1      25.558  43.414  50.038  0.00  0.00    +0.000 F 
ENDBRANCH   9  12
ENDBRANCH   3   9
ENDBRANCH   1   8
BRANCH   2  18
ATOM     18  N   UNL     1      17.052  40.509  44.260  0.00  0.00    +0.000 N 
ATOM     19  C   UNL     1      17.113  39.206  44.741  0.00  0.00    +0.000 C 
ATOM     20  O   UNL     1      17.730  38.277  44.269  0.00  0.00    +0.000 OA
ATOM     21  H   UNL     1      16.573  41.167  44.812  0.00  0.00    +0.000 HD
BRANCH  19  22
ATOM     22  C   UNL     1      16.411  38.995  46.079  0.00  0.00    +0.000 C 
BRANCH  22  23
ATOM     23  C   UNL     1      17.212  39.701  47.176  0.00  0.00    +0.000 C 
BRANCH  23  24
ATOM     24  C   UNL     1      17.694  41.105  46.811  0.00  0.00    +0.000 C 
ATOM     25  C   UNL     1      18.698  41.660  47.832  0.00  0.00    +0.000 C 
ATOM     26  C   UNL     1      16.605  42.174  46.837  0.00  0.00    +0.000 C 
ATOM     27  C   UNL     1      18.680  43.173  47.627  0.00  0.00    +0.000 C 
ATOM     28  C   UNL     1      17.390  43.481  46.868  0.00  0.00    +0.000 C 
ENDBRANCH  23  24
ENDBRANCH  22  23
ENDBRANCH  19  22
ENDBRANCH   2  18
BRANCH   2  29
ATOM     29  C   UNL     1      16.710  41.280  41.876  0.00  0.00    +0.000 C 
ATOM     30  O   UNL     1      15.566  40.881  41.743  0.00  0.00    +0.000 OA
ATOM     31  OXT UNL     1      17.327  42.002  40.911  0.00  0.00    +0.000 OA
ENDBRANCH   2  29
TORSDOF 8
ENDMDL
MODEL 3
REMARK VINA RESULT:      -7.2      1.838      2.402
REMARK  Name = 323201
REMARK  8 active torsions:
REMARK  status: ('A' for Active; 'I' for Inactive)
REMARK    1  A    between atoms: C_3  and  O_5
REMARK    2  A    between atoms: O_5  and  C_8
REMARK    3  A    between atoms: C_15  and  C_16
REMARK    4  A    between atoms: CA_17  and  N_18
REMARK    5  A    between atoms: CA_17  and  C_19
REMARK    6  A    between atoms: C_20  and  C_24
REMARK    7  A    between atoms: C_24  and  C_25
REMARK    8  A    between atoms: C_25  and  C_26
REMARK                            x       y       z     vdW  Elec       q    Type
REMARK                         _______ _______ _______ _____ _____    ______ ____
ROOT
ATOM      1  C   UNL     1      23.072  42.502  48.065  0.00  0.00    +0.000 C 
ATOM      2  CA  UNL     1      24.037  41.643  47.681  0.00  0.00    +0.000 C 
ENDROOT
BRANCH   1   8
ATOM      3  C   UNL     1      19.036  42.471  46.734  0.00  0.00    +0.000 A 
ATOM      4  C   UNL     1      20.066  42.680  45.814  0.00  0.00    +0.000 A 
ATOM      5  C   UNL     1      19.311  42.591  48.094  0.00  0.00    +0.000 A 
ATOM      6  C   UNL     1      21.388  42.795  46.235  0.00  0.00    +0.000 A 
ATOM      7  C   UNL     1      20.639  42.655  48.519  0.00  0.00    +0.000 A 
ATOM      8  C   UNL     1      21.693  42.682  47.592  0.00  0.00    +0.000 A 
BRANCH   3   9
ATOM      9  O   UNL     1      17.743  42.193  46.367  0.00  0.00    +0.000 OA
BRANCH   9  12
ATOM     10 BR   UNL     1      17.011  41.738  43.441  0.00  0.00    +0.000 Br
ATOM     11  C   UNL     1      16.897  40.526  44.897  0.00  0.00    +0.000 A 
ATOM     12  C   UNL     1      17.336  40.881  46.181  0.00  0.00    +0.000 A 
ATOM     13  C   UNL     1      16.377  39.252  44.647  0.00  0.00    +0.000 A 
ATOM     14  C   UNL     1      17.265  39.925  47.210  0.00  0.00    +0.000 A 
ATOM     15  C   UNL     1      16.309  38.331  45.679  0.00  0.00    +0.000 A 
ATOM     16  C   UNL     1      16.768  38.644  46.955  0.00  0.00    +0.000 A 
ATOM     17  F   UNL     1      15.784  37.117  45.451  0.00  0.00    +0.000 F 
ENDBRANCH   9  12
ENDBRANCH   3   9
ENDBRANCH   1   8
BRANCH   2  18
ATOM     18  N   UNL     1      23.931  40.668  46.688  0.00  0.00    +0.000 N 
ATOM     19  C   UNL     1      23.703  39.313  46.893  0.00  0.00    +0.000 C 
ATOM     20  O   UNL     1      23.466  38.759  47.944  0.00  0.00    +0.000 OA
ATOM     21  H   UNL     1      24.025  40.969  45.756  0.00  0.00    +0.000 HD
BRANCH  19  22
ATOM     22  C   UNL     1      23.635  38.484  45.614  0.00  0.00    +0.000 C 
BRANCH  22  23
ATOM     23  C   UNL     1      23.653  39.429  44.410  0.00  0.00    +0.000 C 
BRANCH  23  24
ATOM     24  C   UNL     1      22.340  39.497  43.630  0.00  0.00    +0.000 C 
ATOM     25  C   UNL     1      21.956  40.937  43.261  0.00  0.00    +0.000 C 
ATOM     26  C   UNL     1      21.114  39.042  44.417  0.00  0.00    +0.000 C 
ATOM     27  C   UNL     1      20.457  40.887  42.970  0.00  0.00    +0.000 C 
ATOM     28  C   UNL     1      19.946  39.595  43.606  0.00  0.00    +0.000 C 
ENDBRANCH  23  24
ENDBRANCH  22  23
ENDBRANCH  19  22
ENDBRANCH   2  18
BRANCH   2  29
ATOM     29  C   UNL     1      25.346  41.816  48.442  0.00  0.00    +0.000 C 
ATOM     30  O   UNL     1      26.397  41.269  48.155  0.00  0.00    +0.000 OA
ATOM     31  OXT UNL     1      25.228  42.598  49.540  0.00  0.00    +0.000 OA
ENDBRANCH   2  29
TORSDOF 8
ENDMDL
MODEL 4
REMARK VINA RESULT:      -6.9      3.904      8.067
REMARK  Name = 323201
REMARK  8 active torsions:
REMARK  status: ('A' for Active; 'I' for Inactive)
REMARK    1  A    between atoms: C_3  and  O_5
REMARK    2  A    between atoms: O_5  and  C_8
REMARK    3  A    between atoms: C_15  and  C_16
REMARK    4  A    between atoms: CA_17  and  N_18
REMARK    5  A    between atoms: CA_17  and  C_19
REMARK    6  A    between atoms: C_20  and  C_24
REMARK    7  A    between atoms: C_24  and  C_25
REMARK    8  A    between atoms: C_25  and  C_26
REMARK                            x       y       z     vdW  Elec       q    Type
REMARK                         _______ _______ _______ _____ _____    ______ ____
ROOT
ATOM      1  C   UNL     1      19.510  41.398  43.037  0.00  0.00    +0.000 C 
ATOM      2  CA  UNL     1      18.184  41.398  43.278  0.00  0.00    +0.000 C 
ENDROOT
BRANCH   1   8
ATOM      3  C   UNL     1      22.518  40.576  45.925  0.00  0.00    +0.000 A 
ATOM      4  C   UNL     1      21.799  41.772  45.996  0.00  0.00    +0.000 A 
ATOM      5  C   UNL     1      22.466  39.826  44.753  0.00  0.00    +0.000 A 
ATOM      6  C   UNL     1      20.880  42.113  45.008  0.00  0.00    +0.000 A 
ATOM      7  C   UNL     1      21.510  40.138  43.785  0.00  0.00    +0.000 A 
ATOM      8  C   UNL     1      20.658  41.242  43.941  0.00  0.00    +0.000 A 
BRANCH   3   9
ATOM      9  O   UNL     1      23.315  40.115  46.943  0.00  0.00    +0.000 OA
BRANCH   9  12
ATOM     10 BR   UNL     1      26.173  40.672  46.036  0.00  0.00    +0.000 Br
ATOM     11  C   UNL     1      25.269  41.313  47.577  0.00  0.00    +0.000 A 
ATOM     12  C   UNL     1      23.922  41.006  47.815  0.00  0.00    +0.000 A 
ATOM     13  C   UNL     1      25.984  42.124  48.464  0.00  0.00    +0.000 A 
ATOM     14  C   UNL     1      23.294  41.544  48.953  0.00  0.00    +0.000 A 
ATOM     15  C   UNL     1      25.346  42.636  49.582  0.00  0.00    +0.000 A 
ATOM     16  C   UNL     1      24.001  42.375  49.826  0.00  0.00    +0.000 A 
ATOM     17  F   UNL     1      26.036  43.391  50.450  0.00  0.00    +0.000 F 
ENDBRANCH   9  12
ENDBRANCH   3   9
ENDBRANCH   1   8
BRANCH   2  18
ATOM     18  N   UNL     1      17.568  41.234  44.520  0.00  0.00    +0.000 N 
ATOM     19  C   UNL     1      17.008  42.242  45.295  0.00  0.00    +0.000 C 
ATOM     20  O   UNL     1      16.871  43.408  44.996  0.00  0.00    +0.000 OA
ATOM     21  H   UNL     1      17.526  40.319  44.879  0.00  0.00    +0.000 HD
BRANCH  19  22
ATOM     22  C   UNL     1      16.402  41.764  46.611  0.00  0.00    +0.000 C 
BRANCH  22  23
ATOM     23  C   UNL     1      17.395  40.823  47.299  0.00  0.00    +0.000 C 
BRANCH  23  24
ATOM     24  C   UNL     1      17.175  39.338  47.009  0.00  0.00    +0.000 C 
ATOM     25  C   UNL     1      18.085  38.823  45.885  0.00  0.00    +0.000 C 
ATOM     26  C   UNL     1      15.790  39.000  46.465  0.00  0.00    +0.000 C 
ATOM     27  C   UNL     1      17.416  37.544  45.386  0.00  0.00    +0.000 C 
ATOM     28  C   UNL     1      15.970  37.604  45.877  0.00  0.00    +0.000 C 
ENDBRANCH  23  24
ENDBRANCH  22  23
ENDBRANCH  19  22
ENDBRANCH   2  18
BRANCH   2  29
ATOM     29  C   UNL     1      17.337  41.611  42.030  0.00  0.00    +0.000 C 
ATOM     30  O   UNL     1      17.614  42.376  41.121  0.00  0.00    +0.000 OA
ATOM     31  OXT UNL     1      16.178  40.912  42.042  0.00  0.00    +0.000 OA
ENDBRANCH   2  29
TORSDOF 8
ENDMDL
MODEL 5
REMARK VINA RESULT:      -6.9      1.675      3.821
REMARK  Name = 323201
REMARK  8 active torsions:
REMARK  status: ('A' for Active; 'I' for Inactive)
REMARK    1  A    between atoms: C_3  and  O_5
REMARK    2  A    between atoms: O_5  and  C_8
REMARK    3  A    between atoms: C_15  and  C_16
REMARK    4  A    between atoms: CA_17  and  N_18
REMARK    5  A    between atoms: CA_17  and  C_19
REMARK    6  A    between atoms: C_20  and  C_24
REMARK    7  A    between atoms: C_24  and  C_25
REMARK    8  A    between atoms: C_25  and  C_26
REMARK                            x       y       z     vdW  Elec       q    Type
REMARK                         _______ _______ _______ _____ _____    ______ ____
ROOT
ATOM      1  C   UNL     1      25.146  40.630  46.621  0.00  0.00    +0.000 C 
ATOM      2  CA  UNL     1      24.964  41.511  47.625  0.00  0.00    +0.000 C 
ENDROOT
BRANCH   1   8
ATOM      3  C   UNL     1      22.052  39.355  44.002  0.00  0.00    +0.000 A 
ATOM      4  C   UNL     1      22.670  38.428  44.845  0.00  0.00    +0.000 A 
ATOM      5  C   UNL     1      22.656  40.593  43.801  0.00  0.00    +0.000 A 
ATOM      6  C   UNL     1      23.753  38.796  45.639  0.00  0.00    +0.000 A 
ATOM      7  C   UNL     1      23.709  40.982  44.632  0.00  0.00    +0.000 A 
ATOM      8  C   UNL     1      24.216  40.111  45.609  0.00  0.00    +0.000 A 
BRANCH   3   9
ATOM      9  O   UNL     1      20.889  39.094  43.319  0.00  0.00    +0.000 OA
BRANCH   9  12
ATOM     10 BR   UNL     1      18.344  37.623  44.133  0.00  0.00    +0.000 Br
ATOM     11  C   UNL     1      18.565  39.452  43.674  0.00  0.00    +0.000 A 
ATOM     12  C   UNL     1      19.829  39.984  43.381  0.00  0.00    +0.000 A 
ATOM     13  C   UNL     1      17.427  40.263  43.657  0.00  0.00    +0.000 A 
ATOM     14  C   UNL     1      19.934  41.356  43.088  0.00  0.00    +0.000 A 
ATOM     15  C   UNL     1      17.555  41.609  43.359  0.00  0.00    +0.000 A 
ATOM     16  C   UNL     1      18.800  42.173  43.095  0.00  0.00    +0.000 A 
ATOM     17  F   UNL     1      16.462  42.386  43.314  0.00  0.00    +0.000 F 
ENDBRANCH   9  12
ENDBRANCH   3   9
ENDBRANCH   1   8
BRANCH   2  18
ATOM     18  N   UNL     1      23.777  42.171  47.942  0.00  0.00    +0.000 N 
ATOM     19  C   UNL     1      22.517  41.590  48.035  0.00  0.00    +0.000 C 
ATOM     20  O   UNL     1      22.244  40.413  47.954  0.00  0.00    +0.000 OA
ATOM     21  H   UNL     1      23.837  43.137  48.117  0.00  0.00    +0.000 HD
BRANCH  19  22
ATOM     22  C   UNL     1      21.400  42.563  48.401  0.00  0.00    +0.000 C 
BRANCH  22  23
ATOM     23  C   UNL     1      20.502  42.766  47.178  0.00  0.00    +0.000 C 
BRANCH  23  24
ATOM     24  C   UNL     1      19.008  42.580  47.443  0.00  0.00    +0.000 C 
ATOM     25  C   UNL     1      18.522  41.173  47.070  0.00  0.00    +0.000 C 
ATOM     26  C   UNL     1      18.100  43.458  46.586  0.00  0.00    +0.000 C 
ATOM     27  C   UNL     1      17.009  41.305  46.904  0.00  0.00    +0.000 C 
ATOM     28  C   UNL     1      16.733  42.797  46.724  0.00  0.00    +0.000 C 
ENDBRANCH  23  24
ENDBRANCH  22  23
ENDBRANCH  19  22
ENDBRANCH   2  18
BRANCH   2  29
ATOM     29  C   UNL     1      26.217  41.754  48.457  0.00  0.00    +0.000 C 
ATOM     30  O   UNL     1      27.270  41.153  48.326  0.00  0.00    +0.000 OA
ATOM     31  OXT UNL     1      26.042  42.675  49.433  0.00  0.00    +0.000 OA
ENDBRANCH   2  29
TORSDOF 8
ENDMDL
MODEL 6
REMARK VINA RESULT:      -6.9      2.098      4.193
REMARK  Name = 323201
REMARK  8 active torsions:
REMARK  status: ('A' for Active; 'I' for Inactive)
REMARK    1  A    between atoms: C_3  and  O_5
REMARK    2  A    between atoms: O_5  and  C_8
REMARK    3  A    between atoms: C_15  and  C_16
REMARK    4  A    between atoms: CA_17  and  N_18
REMARK    5  A    between atoms: CA_17  and  C_19
REMARK    6  A    between atoms: C_20  and  C_24
REMARK    7  A    between atoms: C_24  and  C_25
REMARK    8  A    between atoms: C_25  and  C_26
REMARK                            x       y       z     vdW  Elec       q    Type
REMARK                         _______ _______ _______ _____ _____    ______ ____
ROOT
ATOM      1  C   UNL     1      24.190  40.775  45.925  0.00  0.00    +0.000 C 
ATOM      2  CA  UNL     1      24.118  41.537  47.034  0.00  0.00    +0.000 C 
ENDROOT
BRANCH   1   8
ATOM      3  C   UNL     1      20.863  39.666  43.523  0.00  0.00    +0.000 A 
ATOM      4  C   UNL     1      21.826  38.710  43.856  0.00  0.00    +0.000 A 
ATOM      5  C   UNL     1      21.159  41.014  43.710  0.00  0.00    +0.000 A 
ATOM      6  C   UNL     1      22.976  39.067  44.555  0.00  0.00    +0.000 A 
ATOM      7  C   UNL     1      22.284  41.370  44.454  0.00  0.00    +0.000 A 
ATOM      8  C   UNL     1      23.162  40.392  44.947  0.00  0.00    +0.000 A 
BRANCH   3   9
ATOM      9  O   UNL     1      19.643  39.349  42.979  0.00  0.00    +0.000 OA
BRANCH   9  12
ATOM     10 BR   UNL     1      17.365  41.302  42.430  0.00  0.00    +0.000 Br
ATOM     11  C   UNL     1      17.456  39.914  43.722  0.00  0.00    +0.000 A 
ATOM     12  C   UNL     1      18.565  39.060  43.801  0.00  0.00    +0.000 A 
ATOM     13  C   UNL     1      16.368  39.753  44.585  0.00  0.00    +0.000 A 
ATOM     14  C   UNL     1      18.556  38.023  44.752  0.00  0.00    +0.000 A 
ATOM     15  C   UNL     1      16.386  38.730  45.519  0.00  0.00    +0.000 A 
ATOM     16  C   UNL     1      17.459  37.847  45.598  0.00  0.00    +0.000 A 
ATOM     17  F   UNL     1      15.357  38.590  46.368  0.00  0.00    +0.000 F 
ENDBRANCH   9  12
ENDBRANCH   3   9
ENDBRANCH   1   8
BRANCH   2  18
ATOM     18  N   UNL     1      22.980  42.175  47.529  0.00  0.00    +0.000 N 
ATOM     19  C   UNL     1      21.731  41.594  47.714  0.00  0.00    +0.000 C 
ATOM     20  O   UNL     1      21.436  40.428  47.572  0.00  0.00    +0.000 OA
ATOM     21  H   UNL     1      23.071  43.125  47.770  0.00  0.00    +0.000 HD
BRANCH  19  22
ATOM     22  C   UNL     1      20.672  42.539  48.272  0.00  0.00    +0.000 C 
BRANCH  22  23
ATOM     23  C   UNL     1      19.289  42.041  47.844  0.00  0.00    +0.000 C 
BRANCH  23  24
ATOM     24  C   UNL     1      18.533  42.981  46.906  0.00  0.00    +0.000 C 
ATOM     25  C   UNL     1      17.031  42.667  46.853  0.00  0.00    +0.000 C 
ATOM     26  C   UNL     1      18.926  42.859  45.436  0.00  0.00    +0.000 C 
ATOM     27  C   UNL     1      16.536  43.306  45.557  0.00  0.00    +0.000 C 
ATOM     28  C   UNL     1      17.780  43.547  44.703  0.00  0.00    +0.000 C 
ENDBRANCH  23  24
ENDBRANCH  22  23
ENDBRANCH  19  22
ENDBRANCH   2  18
BRANCH   2  29
ATOM     29  C   UNL     1      25.444  41.662  47.775  0.00  0.00    +0.000 C 
ATOM     30  O   UNL     1      26.453  41.030  47.511  0.00  0.00    +0.000 OA
ATOM     31  OXT UNL     1      25.393  42.510  48.828  0.00  0.00    +0.000 OA
ENDBRANCH   2  29
TORSDOF 8
ENDMDL
MODEL 7
REMARK VINA RESULT:      -5.3      3.537      7.800
REMARK  Name = 323201
REMARK  8 active torsions:
REMARK  status: ('A' for Active; 'I' for Inactive)
REMARK    1  A    between atoms: C_3  and  O_5
REMARK    2  A    between atoms: O_5  and  C_8
REMARK    3  A    between atoms: C_15  and  C_16
REMARK    4  A    between atoms: CA_17  and  N_18
REMARK    5  A    between atoms: CA_17  and  C_19
REMARK    6  A    between atoms: C_20  and  C_24
REMARK    7  A    between atoms: C_24  and  C_25
REMARK    8  A    between atoms: C_25  and  C_26
REMARK                            x       y       z     vdW  Elec       q    Type
REMARK                         _______ _______ _______ _____ _____    ______ ____
ROOT
ATOM      1  C   UNL     1      20.930  39.312  43.852  0.00  0.00    +0.000 C 
ATOM      2  CA  UNL     1      19.762  39.880  44.213  0.00  0.00    +0.000 C 
ENDROOT
BRANCH   1   8
ATOM      3  C   UNL     1      24.696  40.061  45.674  0.00  0.00    +0.000 A 
ATOM      4  C   UNL     1      24.066  41.073  44.946  0.00  0.00    +0.000 A 
ATOM      5  C   UNL     1      24.248  38.750  45.533  0.00  0.00    +0.000 A 
ATOM      6  C   UNL     1      22.883  40.826  44.255  0.00  0.00    +0.000 A 
ATOM      7  C   UNL     1      23.035  38.508  44.885  0.00  0.00    +0.000 A 
ATOM      8  C   UNL     1      22.306  39.558  44.305  0.00  0.00    +0.000 A 
BRANCH   3   9
ATOM      9  O   UNL     1      25.771  40.282  46.498  0.00  0.00    +0.000 OA
BRANCH   9  12
ATOM     10 BR   UNL     1      23.491  39.393  48.319  0.00  0.00    +0.000 Br
ATOM     11  C   UNL     1      24.608  40.920  48.472  0.00  0.00    +0.000 A 
ATOM     12  C   UNL     1      25.659  41.150  47.574  0.00  0.00    +0.000 A 
ATOM     13  C   UNL     1      24.363  41.805  49.527  0.00  0.00    +0.000 A 
ATOM     14  C   UNL     1      26.479  42.277  47.764  0.00  0.00    +0.000 A 
ATOM     15  C   UNL     1      25.179  42.912  49.689  0.00  0.00    +0.000 A 
ATOM     16  C   UNL     1      26.251  43.148  48.832  0.00  0.00    +0.000 A 
ATOM     17  F   UNL     1      24.931  43.779  50.682  0.00  0.00    +0.000 F 
ENDBRANCH   9  12
ENDBRANCH   3   9
ENDBRANCH   1   8
BRANCH   2  18
ATOM     18  N   UNL     1      19.590  40.889  45.162  0.00  0.00    +0.000 N 
ATOM     19  C   UNL     1      19.632  42.257  44.918  0.00  0.00    +0.000 C 
ATOM     20  O   UNL     1      19.728  42.808  43.845  0.00  0.00    +0.000 OA
ATOM     21  H   UNL     1      19.423  40.605  46.089  0.00  0.00    +0.000 HD
BRANCH  19  22
ATOM     22  C   UNL     1      19.409  43.124  46.153  0.00  0.00    +0.000 C 
BRANCH  22  23
ATOM     23  C   UNL     1      17.905  43.340  46.341  0.00  0.00    +0.000 C 
BRANCH  23  24
ATOM     24  C   UNL     1      17.140  42.111  46.833  0.00  0.00    +0.000 C 
ATOM     25  C   UNL     1      18.058  41.089  47.518  0.00  0.00    +0.000 C 
ATOM     26  C   UNL     1      16.515  41.270  45.723  0.00  0.00    +0.000 C 
ATOM     27  C   UNL     1      17.285  39.772  47.482  0.00  0.00    +0.000 C 
ATOM     28  C   UNL     1      16.207  39.945  46.412  0.00  0.00    +0.000 C 
ENDBRANCH  23  24
ENDBRANCH  22  23
ENDBRANCH  19  22
ENDBRANCH   2  18
BRANCH   2  29
ATOM     29  C   UNL     1      18.556  39.323  43.466  0.00  0.00    +0.000 C 
ATOM     30  O   UNL     1      18.198  38.158  43.489  0.00  0.00    +0.000 OA
ATOM     31  OXT UNL     1      17.933  40.243  42.693  0.00  0.00    +0.000 OA
ENDBRANCH   2  29
TORSDOF 8
ENDMDL
MODEL 8
REMARK VINA RESULT:      -5.3      2.512      4.932
REMARK  Name = 323201
REMARK  8 active torsions:
REMARK  status: ('A' for Active; 'I' for Inactive)
REMARK    1  A    between atoms: C_3  and  O_5
REMARK    2  A    between atoms: O_5  and  C_8
REMARK    3  A    between atoms: C_15  and  C_16
REMARK    4  A    between atoms: CA_17  and  N_18
REMARK    5  A    between atoms: CA_17  and  C_19
REMARK    6  A    between atoms: C_20  and  C_24
REMARK    7  A    between atoms: C_24  and  C_25
REMARK    8  A    between atoms: C_25  and  C_26
REMARK                            x       y       z     vdW  Elec       q    Type
REMARK                         _______ _______ _______ _____ _____    ______ ____
ROOT
ATOM      1  C   UNL     1      23.261  40.354  44.137  0.00  0.00    +0.000 C 
ATOM      2  CA  UNL     1      23.867  40.966  45.172  0.00  0.00    +0.000 C 
ENDROOT
BRANCH   1   8
ATOM      3  C   UNL     1      19.062  40.346  43.476  0.00  0.00    +0.000 A 
ATOM      4  C   UNL     1      19.767  39.140  43.461  0.00  0.00    +0.000 A 
ATOM      5  C   UNL     1      19.770  41.542  43.392  0.00  0.00    +0.000 A 
ATOM      6  C   UNL     1      21.155  39.121  43.574  0.00  0.00    +0.000 A 
ATOM      7  C   UNL     1      21.156  41.528  43.556  0.00  0.00    +0.000 A 
ATOM      8  C   UNL     1      21.851  40.320  43.723  0.00  0.00    +0.000 A 
BRANCH   3   9
ATOM      9  O   UNL     1      17.692  40.417  43.529  0.00  0.00    +0.000 OA
BRANCH   9  12
ATOM     10 BR   UNL     1      17.038  42.740  45.394  0.00  0.00    +0.000 Br
ATOM     11  C   UNL     1      16.696  40.889  45.636  0.00  0.00    +0.000 A 
ATOM     12  C   UNL     1      17.010  39.951  44.642  0.00  0.00    +0.000 A 
ATOM     13  C   UNL     1      16.099  40.486  46.834  0.00  0.00    +0.000 A 
ATOM     14  C   UNL     1      16.695  38.598  44.862  0.00  0.00    +0.000 A 
ATOM     15  C   UNL     1      15.805  39.147  47.031  0.00  0.00    +0.000 A 
ATOM     16  C   UNL     1      16.075  38.198  46.049  0.00  0.00    +0.000 A 
ATOM     17  F   UNL     1      15.257  38.752  48.191  0.00  0.00    +0.000 F 
ENDBRANCH   9  12
ENDBRANCH   3   9
ENDBRANCH   1   8
BRANCH   2  18
ATOM     18  N   UNL     1      23.252  41.760  46.141  0.00  0.00    +0.000 N 
ATOM     19  C   UNL     1      22.239  41.359  47.004  0.00  0.00    +0.000 C 
ATOM     20  O   UNL     1      21.783  40.244  47.134  0.00  0.00    +0.000 OA
ATOM     21  H   UNL     1      23.565  42.689  46.221  0.00  0.00    +0.000 HD
BRANCH  19  22
ATOM     22  C   UNL     1      21.758  42.446  47.961  0.00  0.00    +0.000 C 
BRANCH  22  23
ATOM     23  C   UNL     1      22.435  42.243  49.319  0.00  0.00    +0.000 C 
BRANCH  23  24
ATOM     24  C   UNL     1      23.838  42.839  49.430  0.00  0.00    +0.000 C 
ATOM     25  C   UNL     1      24.897  41.969  48.740  0.00  0.00    +0.000 C 
ATOM     26  C   UNL     1      24.381  42.916  50.854  0.00  0.00    +0.000 C 
ATOM     27  C   UNL     1      26.228  42.398  49.355  0.00  0.00    +0.000 C 
ATOM     28  C   UNL     1      25.878  43.124  50.654  0.00  0.00    +0.000 C 
ENDBRANCH  23  24
ENDBRANCH  22  23
ENDBRANCH  19  22
ENDBRANCH   2  18
BRANCH   2  29
ATOM     29  C   UNL     1      25.370  40.716  45.234  0.00  0.00    +0.000 C 
ATOM     30  O   UNL     1      25.955  40.207  46.174  0.00  0.00    +0.000 OA
ATOM     31  OXT UNL     1      26.035  41.183  44.152  0.00  0.00    +0.000 OA
ENDBRANCH   2  29
TORSDOF 8
ENDMDL
MODEL 9
REMARK VINA RESULT:      -5.3      3.855      7.518
REMARK  Name = 323201
REMARK  8 active torsions:
REMARK  status: ('A' for Active; 'I' for Inactive)
REMARK    1  A    between atoms: C_3  and  O_5
REMARK    2  A    between atoms: O_5  and  C_8
REMARK    3  A    between atoms: C_15  and  C_16
REMARK    4  A    between atoms: CA_17  and  N_18
REMARK    5  A    between atoms: CA_17  and  C_19
REMARK    6  A    between atoms: C_20  and  C_24
REMARK    7  A    between atoms: C_24  and  C_25
REMARK    8  A    between atoms: C_25  and  C_26
REMARK                            x       y       z     vdW  Elec       q    Type
REMARK                         _______ _______ _______ _____ _____    ______ ____
ROOT
ATOM      1  C   UNL     1      19.326  42.766  44.158  0.00  0.00    +0.000 C 
ATOM      2  CA  UNL     1      18.703  41.796  43.460  0.00  0.00    +0.000 C 
ENDROOT
BRANCH   1   8
ATOM      3  C   UNL     1      21.580  42.102  47.699  0.00  0.00    +0.000 A 
ATOM      4  C   UNL     1      20.189  42.211  47.774  0.00  0.00    +0.000 A 
ATOM      5  C   UNL     1      22.227  42.520  46.539  0.00  0.00    +0.000 A 
ATOM      6  C   UNL     1      19.435  42.528  46.648  0.00  0.00    +0.000 A 
ATOM      7  C   UNL     1      21.474  42.789  45.395  0.00  0.00    +0.000 A 
ATOM      8  C   UNL     1      20.072  42.722  45.422  0.00  0.00    +0.000 A 
BRANCH   3   9
ATOM      9  O   UNL     1      22.357  41.639  48.732  0.00  0.00    +0.000 OA
BRANCH   9  12
ATOM     10 BR   UNL     1      23.485  39.261  47.191  0.00  0.00    +0.000 Br
ATOM     11  C   UNL     1      24.419  40.675  48.045  0.00  0.00    +0.000 A 
ATOM     12  C   UNL     1      23.738  41.733  48.664  0.00  0.00    +0.000 A 
ATOM     13  C   UNL     1      25.817  40.642  48.023  0.00  0.00    +0.000 A 
ATOM     14  C   UNL     1      24.486  42.773  49.244  0.00  0.00    +0.000 A 
ATOM     15  C   UNL     1      26.531  41.674  48.608  0.00  0.00    +0.000 A 
ATOM     16  C   UNL     1      25.882  42.754  49.200  0.00  0.00    +0.000 A 
ATOM     17  F   UNL     1      27.872  41.632  48.613  0.00  0.00    +0.000 F 
ENDBRANCH   9  12
ENDBRANCH   3   9
ENDBRANCH   1   8
BRANCH   2  18
ATOM     18  N   UNL     1      18.630  40.445  43.804  0.00  0.00    +0.000 N 
ATOM     19  C   UNL     1      19.658  39.516  43.695  0.00  0.00    +0.000 C 
ATOM     20  O   UNL     1      20.808  39.727  43.378  0.00  0.00    +0.000 OA
ATOM     21  H   UNL     1      17.771  40.121  44.158  0.00  0.00    +0.000 HD
BRANCH  19  22
ATOM     22  C   UNL     1      19.286  38.108  44.149  0.00  0.00    +0.000 C 
BRANCH  22  23
ATOM     23  C   UNL     1      17.762  37.969  44.133  0.00  0.00    +0.000 C 
BRANCH  23  24
ATOM     24  C   UNL     1      17.032  38.808  45.182  0.00  0.00    +0.000 C 
ATOM     25  C   UNL     1      17.961  39.254  46.319  0.00  0.00    +0.000 C 
ATOM     26  C   UNL     1      15.945  38.058  45.947  0.00  0.00    +0.000 C 
ATOM     27  C   UNL     1      17.031  39.609  47.478  0.00  0.00    +0.000 C 
ATOM     28  C   UNL     1      15.693  38.942  47.164  0.00  0.00    +0.000 C 
ENDBRANCH  23  24
ENDBRANCH  22  23
ENDBRANCH  19  22
ENDBRANCH   2  18
BRANCH   2  29
ATOM     29  C   UNL     1      18.029  42.295  42.188  0.00  0.00    +0.000 C 
ATOM     30  O   UNL     1      17.154  41.701  41.582  0.00  0.00    +0.000 OA
ATOM     31  OXT UNL     1      18.545  43.459  41.729  0.00  0.00    +0.000 OA
ENDBRANCH   2  29
TORSDOF 8
ENDMDL
