MODEL 1
REMARK VINA RESULT:      -8.3      0.000      0.000
REMARK  Name = 323647
REMARK  10 active torsions:
REMARK  status: ('A' for Active; 'I' for Inactive)
REMARK    1  A    between atoms: C_2  and  CA_4
REMARK    2  A    between atoms: CA_4  and  N_5
REMARK    3  A    between atoms: C_6  and  C_8
REMARK    4  A    between atoms: C_7  and  C_10
REMARK    5  A    between atoms: C_10  and  C_13
REMARK    6  A    between atoms: C_13  and  C_16
REMARK    7  A    between atoms: C_17  and  O_20
REMARK    8  A    between atoms: O_20  and  C_23
REMARK    9  A    between atoms: C_24  and  C_27
REMARK   10  A    between atoms: C_27  and  C_30
REMARK                            x       y       z     vdW  Elec       q    Type
REMARK                         _______ _______ _______ _____ _____    ______ ____
ROOT
ATOM      1  CA  UNL     1      23.932  42.196  48.598  0.00  0.00    +0.000 C 
ATOM      2  C   UNL     1      22.647  42.601  48.568  0.00  0.00    +0.000 C 
ENDROOT
BRANCH   2   3
ATOM      3  C   UNL     1      21.673  42.126  47.578  0.00  0.00    +0.000 A 
ATOM      4  C   UNL     1      21.153  40.832  47.675  0.00  0.00    +0.000 A 
ATOM      5  C   UNL     1      21.261  42.964  46.537  0.00  0.00    +0.000 A 
ATOM      6  C   UNL     1      20.222  40.382  46.737  0.00  0.00    +0.000 A 
ATOM      7  C   UNL     1      20.296  42.528  45.622  0.00  0.00    +0.000 A 
ATOM      8  C   UNL     1      19.745  41.251  45.747  0.00  0.00    +0.000 A 
BRANCH   8   9
ATOM      9  O   UNL     1      18.718  40.905  44.883  0.00  0.00    +0.000 OA
BRANCH   9  10
ATOM     10  C   UNL     1      17.851  39.895  45.269  0.00  0.00    +0.000 A 
ATOM     11  C   UNL     1      16.827  40.170  46.193  0.00  0.00    +0.000 A 
ATOM     12  C   UNL     1      17.994  38.581  44.770  0.00  0.00    +0.000 A 
ATOM     13  C   UNL     1      15.947  39.117  46.534  0.00  0.00    +0.000 A 
ATOM     14  C   UNL     1      17.074  37.581  45.072  0.00  0.00    +0.000 A 
ATOM     15  C   UNL     1      16.046  37.851  45.958  0.00  0.00    +0.000 A 
BRANCH  11  16
ATOM     16  C   UNL     1      16.598  41.469  46.942  0.00  0.00    +0.000 C 
ATOM     17  C   UNL     1      16.627  42.789  46.191  0.00  0.00    +0.000 C 
ENDBRANCH  11  16
ENDBRANCH   9  10
ENDBRANCH   8   9
ENDBRANCH   2   3
BRANCH   1  18
ATOM     18  N   UNL     1      24.467  41.437  47.567  0.00  0.00    +0.000 N 
ATOM     19  C   UNL     1      24.457  40.055  47.568  0.00  0.00    +0.000 C 
ATOM     20  O   UNL     1      24.077  39.364  48.505  0.00  0.00    +0.000 OA
ATOM     21  H   UNL     1      24.870  41.905  46.800  0.00  0.00    +0.000 HD
BRANCH  19  22
ATOM     22  C   UNL     1      24.905  39.456  46.235  0.00  0.00    +0.000 C 
BRANCH  22  23
ATOM     23  C   UNL     1      23.844  38.526  45.641  0.00  0.00    +0.000 C 
BRANCH  23  24
ATOM     24  C   UNL     1      23.223  39.027  44.333  0.00  0.00    +0.000 C 
ATOM     25  C   UNL     1      23.228  40.557  44.265  0.00  0.00    +0.000 C 
ATOM     26  C   UNL     1      21.743  38.691  44.164  0.00  0.00    +0.000 C 
ATOM     27  C   UNL     1      22.120  40.931  43.285  0.00  0.00    +0.000 C 
ATOM     28  C   UNL     1      21.254  39.686  43.119  0.00  0.00    +0.000 C 
ENDBRANCH  23  24
ENDBRANCH  22  23
ENDBRANCH  19  22
ENDBRANCH   1  18
BRANCH   1  30
ATOM     29  O   UNL     1      24.600  43.204  50.658  0.00  0.00    +0.000 OA
ATOM     30  C   UNL     1      24.931  42.737  49.585  0.00  0.00    +0.000 C 
ATOM     31  OXT UNL     1      26.235  42.603  49.244  0.00  0.00    +0.000 OA
ENDBRANCH   1  30
TORSDOF 9
ENDMDL
MODEL 2
REMARK VINA RESULT:      -8.2      1.461      2.356
REMARK  Name = 323647
REMARK  10 active torsions:
REMARK  status: ('A' for Active; 'I' for Inactive)
REMARK    1  A    between atoms: C_2  and  CA_4
REMARK    2  A    between atoms: CA_4  and  N_5
REMARK    3  A    between atoms: C_6  and  C_8
REMARK    4  A    between atoms: C_7  and  C_10
REMARK    5  A    between atoms: C_10  and  C_13
REMARK    6  A    between atoms: C_13  and  C_16
REMARK    7  A    between atoms: C_17  and  O_20
REMARK    8  A    between atoms: O_20  and  C_23
REMARK    9  A    between atoms: C_24  and  C_27
REMARK   10  A    between atoms: C_27  and  C_30
REMARK                            x       y       z     vdW  Elec       q    Type
REMARK                         _______ _______ _______ _____ _____    ______ ____
ROOT
ATOM      1  CA  UNL     1      23.882  41.649  48.043  0.00  0.00    +0.000 C 
ATOM      2  C   UNL     1      22.749  42.216  48.504  0.00  0.00    +0.000 C 
ENDROOT
BRANCH   2   3
ATOM      3  C   UNL     1      21.420  41.934  47.948  0.00  0.00    +0.000 A 
ATOM      4  C   UNL     1      21.123  40.659  47.458  0.00  0.00    +0.000 A 
ATOM      5  C   UNL     1      20.447  42.937  47.908  0.00  0.00    +0.000 A 
ATOM      6  C   UNL     1      19.858  40.390  46.934  0.00  0.00    +0.000 A 
ATOM      7  C   UNL     1      19.164  42.655  47.423  0.00  0.00    +0.000 A 
ATOM      8  C   UNL     1      18.857  41.369  46.975  0.00  0.00    +0.000 A 
BRANCH   8   9
ATOM      9  O   UNL     1      17.546  41.113  46.605  0.00  0.00    +0.000 OA
BRANCH   9  10
ATOM     10  C   UNL     1      17.236  41.119  45.254  0.00  0.00    +0.000 A 
ATOM     11  C   UNL     1      16.980  39.905  44.592  0.00  0.00    +0.000 A 
ATOM     12  C   UNL     1      17.198  42.325  44.520  0.00  0.00    +0.000 A 
ATOM     13  C   UNL     1      16.637  39.962  43.221  0.00  0.00    +0.000 A 
ATOM     14  C   UNL     1      16.793  42.358  43.189  0.00  0.00    +0.000 A 
ATOM     15  C   UNL     1      16.511  41.170  42.536  0.00  0.00    +0.000 A 
BRANCH  11  16
ATOM     16  C   UNL     1      17.108  38.508  45.166  0.00  0.00    +0.000 C 
ATOM     17  C   UNL     1      16.086  38.008  46.172  0.00  0.00    +0.000 C 
ENDBRANCH  11  16
ENDBRANCH   9  10
ENDBRANCH   8   9
ENDBRANCH   2   3
BRANCH   1  18
ATOM     18  N   UNL     1      23.882  40.900  46.876  0.00  0.00    +0.000 N 
ATOM     19  C   UNL     1      23.801  39.520  46.869  0.00  0.00    +0.000 C 
ATOM     20  O   UNL     1      23.824  38.818  47.873  0.00  0.00    +0.000 OA
ATOM     21  H   UNL     1      23.940  41.372  46.014  0.00  0.00    +0.000 HD
BRANCH  19  22
ATOM     22  C   UNL     1      23.602  38.942  45.469  0.00  0.00    +0.000 C 
BRANCH  22  23
ATOM     23  C   UNL     1      23.780  40.004  44.381  0.00  0.00    +0.000 C 
BRANCH  23  24
ATOM     24  C   UNL     1      22.518  40.283  43.557  0.00  0.00    +0.000 C 
ATOM     25  C   UNL     1      21.822  41.566  44.021  0.00  0.00    +0.000 C 
ATOM     26  C   UNL     1      21.419  39.234  43.706  0.00  0.00    +0.000 C 
ATOM     27  C   UNL     1      20.366  41.427  43.584  0.00  0.00    +0.000 C 
ATOM     28  C   UNL     1      20.155  39.953  43.251  0.00  0.00    +0.000 C 
ENDBRANCH  23  24
ENDBRANCH  22  23
ENDBRANCH  19  22
ENDBRANCH   1  18
BRANCH   1  30
ATOM     29  O   UNL     1      26.269  41.581  48.086  0.00  0.00    +0.000 OA
ATOM     30  C   UNL     1      25.242  41.994  48.588  0.00  0.00    +0.000 C 
ATOM     31  OXT UNL     1      25.261  42.860  49.629  0.00  0.00    +0.000 OA
ENDBRANCH   1  30
TORSDOF 9
ENDMDL
MODEL 3
REMARK VINA RESULT:      -8.0      1.081      1.696
REMARK  Name = 323647
REMARK  10 active torsions:
REMARK  status: ('A' for Active; 'I' for Inactive)
REMARK    1  A    between atoms: C_2  and  CA_4
REMARK    2  A    between atoms: CA_4  and  N_5
REMARK    3  A    between atoms: C_6  and  C_8
REMARK    4  A    between atoms: C_7  and  C_10
REMARK    5  A    between atoms: C_10  and  C_13
REMARK    6  A    between atoms: C_13  and  C_16
REMARK    7  A    between atoms: C_17  and  O_20
REMARK    8  A    between atoms: O_20  and  C_23
REMARK    9  A    between atoms: C_24  and  C_27
REMARK   10  A    between atoms: C_27  and  C_30
REMARK                            x       y       z     vdW  Elec       q    Type
REMARK                         _______ _______ _______ _____ _____    ______ ____
ROOT
ATOM      1  CA  UNL     1      24.179  41.704  47.890  0.00  0.00    +0.000 C 
ATOM      2  C   UNL     1      23.111  42.522  47.971  0.00  0.00    +0.000 C 
ENDROOT
BRANCH   2   3
ATOM      3  C   UNL     1      21.840  42.264  47.283  0.00  0.00    +0.000 A 
ATOM      4  C   UNL     1      21.082  41.138  47.614  0.00  0.00    +0.000 A 
ATOM      5  C   UNL     1      21.383  43.142  46.295  0.00  0.00    +0.000 A 
ATOM      6  C   UNL     1      19.871  40.895  46.963  0.00  0.00    +0.000 A 
ATOM      7  C   UNL     1      20.149  42.923  45.674  0.00  0.00    +0.000 A 
ATOM      8  C   UNL     1      19.372  41.821  46.038  0.00  0.00    +0.000 A 
BRANCH   8   9
ATOM      9  O   UNL     1      18.113  41.705  45.471  0.00  0.00    +0.000 OA
BRANCH   9  10
ATOM     10  C   UNL     1      17.386  40.553  45.725  0.00  0.00    +0.000 A 
ATOM     11  C   UNL     1      17.089  39.670  44.671  0.00  0.00    +0.000 A 
ATOM     12  C   UNL     1      16.912  40.259  47.022  0.00  0.00    +0.000 A 
ATOM     13  C   UNL     1      16.372  38.491  44.981  0.00  0.00    +0.000 A 
ATOM     14  C   UNL     1      16.267  39.061  47.311  0.00  0.00    +0.000 A 
ATOM     15  C   UNL     1      15.996  38.172  46.285  0.00  0.00    +0.000 A 
BRANCH  11  16
ATOM     16  C   UNL     1      17.385  39.874  43.198  0.00  0.00    +0.000 C 
ATOM     17  C   UNL     1      16.716  41.010  42.443  0.00  0.00    +0.000 C 
ENDBRANCH  11  16
ENDBRANCH   9  10
ENDBRANCH   8   9
ENDBRANCH   2   3
BRANCH   1  18
ATOM     18  N   UNL     1      24.204  40.651  46.988  0.00  0.00    +0.000 N 
ATOM     19  C   UNL     1      23.874  39.355  47.337  0.00  0.00    +0.000 C 
ATOM     20  O   UNL     1      23.628  38.984  48.477  0.00  0.00    +0.000 OA
ATOM     21  H   UNL     1      24.469  40.835  46.058  0.00  0.00    +0.000 HD
BRANCH  19  22
ATOM     22  C   UNL     1      23.770  38.422  46.131  0.00  0.00    +0.000 C 
BRANCH  22  23
ATOM     23  C   UNL     1      24.122  39.136  44.823  0.00  0.00    +0.000 C 
BRANCH  23  24
ATOM     24  C   UNL     1      22.938  39.328  43.869  0.00  0.00    +0.000 C 
ATOM     25  C   UNL     1      22.627  40.813  43.659  0.00  0.00    +0.000 C 
ATOM     26  C   UNL     1      21.611  38.780  44.388  0.00  0.00    +0.000 C 
ATOM     27  C   UNL     1      21.166  40.872  43.222  0.00  0.00    +0.000 C 
ATOM     28  C   UNL     1      20.559  39.516  43.566  0.00  0.00    +0.000 C 
ENDBRANCH  23  24
ENDBRANCH  22  23
ENDBRANCH  19  22
ENDBRANCH   1  18
BRANCH   1  30
ATOM     29  O   UNL     1      26.544  41.539  48.177  0.00  0.00    +0.000 OA
ATOM     30  C   UNL     1      25.491  42.014  48.557  0.00  0.00    +0.000 C 
ATOM     31  OXT UNL     1      25.446  42.922  49.562  0.00  0.00    +0.000 OA
ENDBRANCH   1  30
TORSDOF 9
ENDMDL
MODEL 4
REMARK VINA RESULT:      -7.8      2.181      7.593
REMARK  Name = 323647
REMARK  10 active torsions:
REMARK  status: ('A' for Active; 'I' for Inactive)
REMARK    1  A    between atoms: C_2  and  CA_4
REMARK    2  A    between atoms: CA_4  and  N_5
REMARK    3  A    between atoms: C_6  and  C_8
REMARK    4  A    between atoms: C_7  and  C_10
REMARK    5  A    between atoms: C_10  and  C_13
REMARK    6  A    between atoms: C_13  and  C_16
REMARK    7  A    between atoms: C_17  and  O_20
REMARK    8  A    between atoms: O_20  and  C_23
REMARK    9  A    between atoms: C_24  and  C_27
REMARK   10  A    between atoms: C_27  and  C_30
REMARK                            x       y       z     vdW  Elec       q    Type
REMARK                         _______ _______ _______ _____ _____    ______ ____
ROOT
ATOM      1  CA  UNL     1      18.989  41.985  43.609  0.00  0.00    +0.000 C 
ATOM      2  C   UNL     1      20.300  42.177  43.858  0.00  0.00    +0.000 C 
ENDROOT
BRANCH   2   3
ATOM      3  C   UNL     1      20.971  41.696  45.072  0.00  0.00    +0.000 A 
ATOM      4  C   UNL     1      21.456  40.387  45.131  0.00  0.00    +0.000 A 
ATOM      5  C   UNL     1      21.127  42.545  46.173  0.00  0.00    +0.000 A 
ATOM      6  C   UNL     1      22.098  39.932  46.284  0.00  0.00    +0.000 A 
ATOM      7  C   UNL     1      21.810  42.102  47.311  0.00  0.00    +0.000 A 
ATOM      8  C   UNL     1      22.333  40.808  47.351  0.00  0.00    +0.000 A 
BRANCH   8   9
ATOM      9  O   UNL     1      23.091  40.453  48.455  0.00  0.00    +0.000 OA
BRANCH   9  10
ATOM     10  C   UNL     1      24.073  41.332  48.883  0.00  0.00    +0.000 A 
ATOM     11  C   UNL     1      25.311  41.372  48.216  0.00  0.00    +0.000 A 
ATOM     12  C   UNL     1      23.864  42.174  49.998  0.00  0.00    +0.000 A 
ATOM     13  C   UNL     1      26.272  42.307  48.668  0.00  0.00    +0.000 A 
ATOM     14  C   UNL     1      24.802  43.129  50.379  0.00  0.00    +0.000 A 
ATOM     15  C   UNL     1      26.012  43.196  49.710  0.00  0.00    +0.000 A 
BRANCH  11  16
ATOM     16  C   UNL     1      25.775  40.460  47.098  0.00  0.00    +0.000 C 
ATOM     17  C   UNL     1      25.452  40.808  45.655  0.00  0.00    +0.000 C 
ENDBRANCH  11  16
ENDBRANCH   9  10
ENDBRANCH   8   9
ENDBRANCH   2   3
BRANCH   1  18
ATOM     18  N   UNL     1      18.143  41.479  44.585  0.00  0.00    +0.000 N 
ATOM     19  C   UNL     1      17.500  42.279  45.510  0.00  0.00    +0.000 C 
ATOM     20  O   UNL     1      17.682  43.484  45.632  0.00  0.00    +0.000 OA
ATOM     21  H   UNL     1      17.994  40.506  44.619  0.00  0.00    +0.000 HD
BRANCH  19  22
ATOM     22  C   UNL     1      16.463  41.519  46.336  0.00  0.00    +0.000 C 
BRANCH  22  23
ATOM     23  C   UNL     1      16.979  40.147  46.779  0.00  0.00    +0.000 C 
BRANCH  23  24
ATOM     24  C   UNL     1      16.835  39.046  45.722  0.00  0.00    +0.000 C 
ATOM     25  C   UNL     1      16.255  37.764  46.328  0.00  0.00    +0.000 C 
ATOM     26  C   UNL     1      18.155  38.564  45.126  0.00  0.00    +0.000 C 
ATOM     27  C   UNL     1      16.697  36.633  45.405  0.00  0.00    +0.000 C 
ATOM     28  C   UNL     1      17.822  37.197  44.542  0.00  0.00    +0.000 C 
ENDBRANCH  23  24
ENDBRANCH  22  23
ENDBRANCH  19  22
ENDBRANCH   1  18
BRANCH   1  30
ATOM     29  O   UNL     1      18.641  43.583  41.868  0.00  0.00    +0.000 OA
ATOM     30  C   UNL     1      18.307  42.535  42.385  0.00  0.00    +0.000 C 
ATOM     31  OXT UNL     1      17.345  41.752  41.840  0.00  0.00    +0.000 OA
ENDBRANCH   1  30
TORSDOF 9
ENDMDL
MODEL 5
REMARK VINA RESULT:      -7.2      2.288      7.679
REMARK  Name = 323647
REMARK  10 active torsions:
REMARK  status: ('A' for Active; 'I' for Inactive)
REMARK    1  A    between atoms: C_2  and  CA_4
REMARK    2  A    between atoms: CA_4  and  N_5
REMARK    3  A    between atoms: C_6  and  C_8
REMARK    4  A    between atoms: C_7  and  C_10
REMARK    5  A    between atoms: C_10  and  C_13
REMARK    6  A    between atoms: C_13  and  C_16
REMARK    7  A    between atoms: C_17  and  O_20
REMARK    8  A    between atoms: O_20  and  C_23
REMARK    9  A    between atoms: C_24  and  C_27
REMARK   10  A    between atoms: C_27  and  C_30
REMARK                            x       y       z     vdW  Elec       q    Type
REMARK                         _______ _______ _______ _____ _____    ______ ____
ROOT
ATOM      1  CA  UNL     1      18.754  41.520  43.449  0.00  0.00    +0.000 C 
ATOM      2  C   UNL     1      20.033  41.917  43.597  0.00  0.00    +0.000 C 
ENDROOT
BRANCH   2   3
ATOM      3  C   UNL     1      20.851  41.590  44.771  0.00  0.00    +0.000 A 
ATOM      4  C   UNL     1      21.163  42.582  45.704  0.00  0.00    +0.000 A 
ATOM      5  C   UNL     1      21.319  40.285  44.961  0.00  0.00    +0.000 A 
ATOM      6  C   UNL     1      21.936  42.269  46.823  0.00  0.00    +0.000 A 
ATOM      7  C   UNL     1      22.057  39.962  46.106  0.00  0.00    +0.000 A 
ATOM      8  C   UNL     1      22.330  40.945  47.059  0.00  0.00    +0.000 A 
BRANCH   8   9
ATOM      9  O   UNL     1      22.971  40.553  48.223  0.00  0.00    +0.000 OA
BRANCH   9  10
ATOM     10  C   UNL     1      23.948  41.386  48.743  0.00  0.00    +0.000 A 
ATOM     11  C   UNL     1      25.242  41.372  48.191  0.00  0.00    +0.000 A 
ATOM     12  C   UNL     1      23.677  42.234  49.840  0.00  0.00    +0.000 A 
ATOM     13  C   UNL     1      26.199  42.262  48.733  0.00  0.00    +0.000 A 
ATOM     14  C   UNL     1      24.618  43.146  50.309  0.00  0.00    +0.000 A 
ATOM     15  C   UNL     1      25.885  43.160  49.752  0.00  0.00    +0.000 A 
BRANCH  11  16
ATOM     16  C   UNL     1      25.765  40.442  47.114  0.00  0.00    +0.000 C 
ATOM     17  C   UNL     1      25.484  40.745  45.652  0.00  0.00    +0.000 C 
ENDBRANCH  11  16
ENDBRANCH   9  10
ENDBRANCH   8   9
ENDBRANCH   2   3
BRANCH   1  18
ATOM     18  N   UNL     1      18.064  40.930  44.497  0.00  0.00    +0.000 N 
ATOM     19  C   UNL     1      17.935  39.561  44.636  0.00  0.00    +0.000 C 
ATOM     20  O   UNL     1      18.320  38.740  43.812  0.00  0.00    +0.000 OA
ATOM     21  H   UNL     1      17.648  41.512  45.173  0.00  0.00    +0.000 HD
BRANCH  19  22
ATOM     22  C   UNL     1      17.322  39.153  45.975  0.00  0.00    +0.000 C 
BRANCH  22  23
ATOM     23  C   UNL     1      16.677  40.341  46.695  0.00  0.00    +0.000 C 
BRANCH  23  24
ATOM     24  C   UNL     1      17.536  41.610  46.715  0.00  0.00    +0.000 C 
ATOM     25  C   UNL     1      18.437  41.653  47.953  0.00  0.00    +0.000 C 
ATOM     26  C   UNL     1      16.743  42.909  46.835  0.00  0.00    +0.000 C 
ATOM     27  C   UNL     1      18.766  43.127  48.174  0.00  0.00    +0.000 C 
ATOM     28  C   UNL     1      17.763  43.921  47.343  0.00  0.00    +0.000 C 
ENDBRANCH  23  24
ENDBRANCH  22  23
ENDBRANCH  19  22
ENDBRANCH   1  18
BRANCH   1  30
ATOM     29  O   UNL     1      18.195  42.857  41.550  0.00  0.00    +0.000 OA
ATOM     30  C   UNL     1      17.914  41.914  42.264  0.00  0.00    +0.000 C 
ATOM     31  OXT UNL     1      16.863  41.105  41.987  0.00  0.00    +0.000 OA
ENDBRANCH   1  30
TORSDOF 9
ENDMDL
MODEL 6
REMARK VINA RESULT:      -7.1      2.615      7.764
REMARK  Name = 323647
REMARK  10 active torsions:
REMARK  status: ('A' for Active; 'I' for Inactive)
REMARK    1  A    between atoms: C_2  and  CA_4
REMARK    2  A    between atoms: CA_4  and  N_5
REMARK    3  A    between atoms: C_6  and  C_8
REMARK    4  A    between atoms: C_7  and  C_10
REMARK    5  A    between atoms: C_10  and  C_13
REMARK    6  A    between atoms: C_13  and  C_16
REMARK    7  A    between atoms: C_17  and  O_20
REMARK    8  A    between atoms: O_20  and  C_23
REMARK    9  A    between atoms: C_24  and  C_27
REMARK   10  A    between atoms: C_27  and  C_30
REMARK                            x       y       z     vdW  Elec       q    Type
REMARK                         _______ _______ _______ _____ _____    ______ ____
ROOT
ATOM      1  CA  UNL     1      17.658  41.231  42.841  0.00  0.00    +0.000 C 
ATOM      2  C   UNL     1      18.952  41.610  42.829  0.00  0.00    +0.000 C 
ENDROOT
BRANCH   2   3
ATOM      3  C   UNL     1      19.830  41.527  44.003  0.00  0.00    +0.000 A 
ATOM      4  C   UNL     1      20.270  42.696  44.630  0.00  0.00    +0.000 A 
ATOM      5  C   UNL     1      20.227  40.281  44.498  0.00  0.00    +0.000 A 
ATOM      6  C   UNL     1      21.100  42.617  45.749  0.00  0.00    +0.000 A 
ATOM      7  C   UNL     1      21.023  40.201  45.646  0.00  0.00    +0.000 A 
ATOM      8  C   UNL     1      21.426  41.369  46.297  0.00  0.00    +0.000 A 
BRANCH   8   9
ATOM      9  O   UNL     1      22.123  41.235  47.487  0.00  0.00    +0.000 OA
BRANCH   9  10
ATOM     10  C   UNL     1      23.508  41.268  47.440  0.00  0.00    +0.000 A 
ATOM     11  C   UNL     1      24.226  41.865  48.492  0.00  0.00    +0.000 A 
ATOM     12  C   UNL     1      24.213  40.735  46.339  0.00  0.00    +0.000 A 
ATOM     13  C   UNL     1      25.639  41.847  48.417  0.00  0.00    +0.000 A 
ATOM     14  C   UNL     1      25.603  40.673  46.323  0.00  0.00    +0.000 A 
ATOM     15  C   UNL     1      26.320  41.231  47.367  0.00  0.00    +0.000 A 
BRANCH  11  16
ATOM     16  C   UNL     1      23.654  42.609  49.683  0.00  0.00    +0.000 C 
ATOM     17  C   UNL     1      24.586  43.156  50.750  0.00  0.00    +0.000 C 
ENDBRANCH  11  16
ENDBRANCH   9  10
ENDBRANCH   8   9
ENDBRANCH   2   3
BRANCH   1  18
ATOM     18  N   UNL     1      17.019  40.912  44.030  0.00  0.00    +0.000 N 
ATOM     19  C   UNL     1      16.925  39.619  44.509  0.00  0.00    +0.000 C 
ATOM     20  O   UNL     1      17.298  38.624  43.900  0.00  0.00    +0.000 OA
ATOM     21  H   UNL     1      16.615  41.639  44.556  0.00  0.00    +0.000 HD
BRANCH  19  22
ATOM     22  C   UNL     1      16.369  39.549  45.931  0.00  0.00    +0.000 C 
BRANCH  22  23
ATOM     23  C   UNL     1      17.413  39.958  46.973  0.00  0.00    +0.000 C 
BRANCH  23  24
ATOM     24  C   UNL     1      17.266  41.394  47.486  0.00  0.00    +0.000 C 
ATOM     25  C   UNL     1      16.636  42.303  46.426  0.00  0.00    +0.000 C 
ATOM     26  C   UNL     1      18.587  42.099  47.786  0.00  0.00    +0.000 C 
ATOM     27  C   UNL     1      17.071  43.721  46.785  0.00  0.00    +0.000 C 
ATOM     28  C   UNL     1      18.231  43.580  47.766  0.00  0.00    +0.000 C 
ENDBRANCH  23  24
ENDBRANCH  22  23
ENDBRANCH  19  22
ENDBRANCH   1  18
BRANCH   1  30
ATOM     29  O   UNL     1      17.132  41.889  40.606  0.00  0.00    +0.000 OA
ATOM     30  C   UNL     1      16.759  41.376  41.643  0.00  0.00    +0.000 C 
ATOM     31  OXT UNL     1      15.526  40.828  41.758  0.00  0.00    +0.000 OA
ENDBRANCH   1  30
TORSDOF 9
ENDMDL
MODEL 7
REMARK VINA RESULT:      -7.1      1.413      1.866
REMARK  Name = 323647
REMARK  10 active torsions:
REMARK  status: ('A' for Active; 'I' for Inactive)
REMARK    1  A    between atoms: C_2  and  CA_4
REMARK    2  A    between atoms: CA_4  and  N_5
REMARK    3  A    between atoms: C_6  and  C_8
REMARK    4  A    between atoms: C_7  and  C_10
REMARK    5  A    between atoms: C_10  and  C_13
REMARK    6  A    between atoms: C_13  and  C_16
REMARK    7  A    between atoms: C_17  and  O_20
REMARK    8  A    between atoms: O_20  and  C_23
REMARK    9  A    between atoms: C_24  and  C_27
REMARK   10  A    between atoms: C_27  and  C_30
REMARK                            x       y       z     vdW  Elec       q    Type
REMARK                         _______ _______ _______ _____ _____    ______ ____
ROOT
ATOM      1  CA  UNL     1      23.992  41.740  48.041  0.00  0.00    +0.000 C 
ATOM      2  C   UNL     1      22.861  42.263  48.555  0.00  0.00    +0.000 C 
ENDROOT
BRANCH   2   3
ATOM      3  C   UNL     1      21.519  41.929  48.063  0.00  0.00    +0.000 A 
ATOM      4  C   UNL     1      21.295  40.710  47.416  0.00  0.00    +0.000 A 
ATOM      5  C   UNL     1      20.461  42.827  48.239  0.00  0.00    +0.000 A 
ATOM      6  C   UNL     1      20.017  40.391  46.953  0.00  0.00    +0.000 A 
ATOM      7  C   UNL     1      19.172  42.488  47.813  0.00  0.00    +0.000 A 
ATOM      8  C   UNL     1      18.941  41.251  47.207  0.00  0.00    +0.000 A 
BRANCH   8   9
ATOM      9  O   UNL     1      17.631  40.919  46.900  0.00  0.00    +0.000 OA
BRANCH   9  10
ATOM     10  C   UNL     1      17.268  40.862  45.564  0.00  0.00    +0.000 A 
ATOM     11  C   UNL     1      17.048  42.055  44.851  0.00  0.00    +0.000 A 
ATOM     12  C   UNL     1      17.087  39.625  44.908  0.00  0.00    +0.000 A 
ATOM     13  C   UNL     1      16.709  41.950  43.481  0.00  0.00    +0.000 A 
ATOM     14  C   UNL     1      16.818  39.552  43.545  0.00  0.00    +0.000 A 
ATOM     15  C   UNL     1      16.629  40.721  42.828  0.00  0.00    +0.000 A 
BRANCH  11  16
ATOM     16  C   UNL     1      17.054  43.466  45.406  0.00  0.00    +0.000 C 
ATOM     17  C   UNL     1      16.473  43.738  46.783  0.00  0.00    +0.000 C 
ENDBRANCH  11  16
ENDBRANCH   9  10
ENDBRANCH   8   9
ENDBRANCH   2   3
BRANCH   1  18
ATOM     18  N   UNL     1      23.965  40.989  46.875  0.00  0.00    +0.000 N 
ATOM     19  C   UNL     1      23.937  39.607  46.872  0.00  0.00    +0.000 C 
ATOM     20  O   UNL     1      24.033  38.909  47.873  0.00  0.00    +0.000 OA
ATOM     21  H   UNL     1      23.966  41.461  46.011  0.00  0.00    +0.000 HD
BRANCH  19  22
ATOM     22  C   UNL     1      23.694  39.020  45.482  0.00  0.00    +0.000 C 
BRANCH  22  23
ATOM     23  C   UNL     1      23.829  40.076  44.383  0.00  0.00    +0.000 C 
BRANCH  23  24
ATOM     24  C   UNL     1      22.552  40.308  43.569  0.00  0.00    +0.000 C 
ATOM     25  C   UNL     1      21.828  41.581  44.018  0.00  0.00    +0.000 C 
ATOM     26  C   UNL     1      21.481  39.235  43.749  0.00  0.00    +0.000 C 
ATOM     27  C   UNL     1      20.371  41.398  43.601  0.00  0.00    +0.000 C 
ATOM     28  C   UNL     1      20.194  39.914  43.296  0.00  0.00    +0.000 C 
ENDBRANCH  23  24
ENDBRANCH  22  23
ENDBRANCH  19  22
ENDBRANCH   1  18
BRANCH   1  30
ATOM     29  O   UNL     1      25.539  42.718  49.574  0.00  0.00    +0.000 OA
ATOM     30  C   UNL     1      25.361  42.138  48.521  0.00  0.00    +0.000 C 
ATOM     31  OXT UNL     1      26.400  41.739  47.748  0.00  0.00    +0.000 OA
ENDBRANCH   1  30
TORSDOF 9
ENDMDL
MODEL 8
REMARK VINA RESULT:      -6.7      2.491      7.415
REMARK  Name = 323647
REMARK  10 active torsions:
REMARK  status: ('A' for Active; 'I' for Inactive)
REMARK    1  A    between atoms: C_2  and  CA_4
REMARK    2  A    between atoms: CA_4  and  N_5
REMARK    3  A    between atoms: C_6  and  C_8
REMARK    4  A    between atoms: C_7  and  C_10
REMARK    5  A    between atoms: C_10  and  C_13
REMARK    6  A    between atoms: C_13  and  C_16
REMARK    7  A    between atoms: C_17  and  O_20
REMARK    8  A    between atoms: O_20  and  C_23
REMARK    9  A    between atoms: C_24  and  C_27
REMARK   10  A    between atoms: C_27  and  C_30
REMARK                            x       y       z     vdW  Elec       q    Type
REMARK                         _______ _______ _______ _____ _____    ______ ____
ROOT
ATOM      1  CA  UNL     1      17.145  39.932  46.639  0.00  0.00    +0.000 C 
ATOM      2  C   UNL     1      18.276  39.692  47.332  0.00  0.00    +0.000 C 
ENDROOT
BRANCH   2   3
ATOM      3  C   UNL     1      19.510  40.469  47.160  0.00  0.00    +0.000 A 
ATOM      4  C   UNL     1      19.504  41.848  47.387  0.00  0.00    +0.000 A 
ATOM      5  C   UNL     1      20.694  39.834  46.772  0.00  0.00    +0.000 A 
ATOM      6  C   UNL     1      20.678  42.586  47.228  0.00  0.00    +0.000 A 
ATOM      7  C   UNL     1      21.881  40.567  46.656  0.00  0.00    +0.000 A 
ATOM      8  C   UNL     1      21.882  41.937  46.925  0.00  0.00    +0.000 A 
BRANCH   8   9
ATOM      9  O   UNL     1      23.101  42.597  46.900  0.00  0.00    +0.000 OA
BRANCH   9  10
ATOM     10  C   UNL     1      23.902  42.532  48.029  0.00  0.00    +0.000 A 
ATOM     11  C   UNL     1      25.222  42.060  47.920  0.00  0.00    +0.000 A 
ATOM     12  C   UNL     1      23.408  42.909  49.297  0.00  0.00    +0.000 A 
ATOM     13  C   UNL     1      26.013  42.041  49.093  0.00  0.00    +0.000 A 
ATOM     14  C   UNL     1      24.228  42.942  50.421  0.00  0.00    +0.000 A 
ATOM     15  C   UNL     1      25.538  42.507  50.317  0.00  0.00    +0.000 A 
BRANCH  11  16
ATOM     16  C   UNL     1      25.887  41.483  46.686  0.00  0.00    +0.000 C 
ATOM     17  C   UNL     1      25.412  40.154  46.123  0.00  0.00    +0.000 C 
ENDBRANCH  11  16
ENDBRANCH   9  10
ENDBRANCH   8   9
ENDBRANCH   2   3
BRANCH   1  18
ATOM     18  N   UNL     1      17.136  40.819  45.573  0.00  0.00    +0.000 N 
ATOM     19  C   UNL     1      16.792  42.151  45.707  0.00  0.00    +0.000 C 
ATOM     20  O   UNL     1      16.370  42.659  46.737  0.00  0.00    +0.000 OA
ATOM     21  H   UNL     1      17.386  40.485  44.681  0.00  0.00    +0.000 HD
BRANCH  19  22
ATOM     22  C   UNL     1      17.065  42.966  44.443  0.00  0.00    +0.000 C 
BRANCH  22  23
ATOM     23  C   UNL     1      17.128  42.082  43.194  0.00  0.00    +0.000 C 
BRANCH  23  24
ATOM     24  C   UNL     1      18.540  41.630  42.810  0.00  0.00    +0.000 C 
ATOM     25  C   UNL     1      18.788  40.173  43.212  0.00  0.00    +0.000 C 
ATOM     26  C   UNL     1      19.662  42.370  43.534  0.00  0.00    +0.000 C 
ATOM     27  C   UNL     1      20.303  40.029  43.334  0.00  0.00    +0.000 C 
ATOM     28  C   UNL     1      20.865  41.446  43.400  0.00  0.00    +0.000 C 
ENDBRANCH  23  24
ENDBRANCH  22  23
ENDBRANCH  19  22
ENDBRANCH   1  18
BRANCH   1  30
ATOM     29  O   UNL     1      14.965  39.430  47.474  0.00  0.00    +0.000 OA
ATOM     30  C   UNL     1      15.908  39.088  46.788  0.00  0.00    +0.000 C 
ATOM     31  OXT UNL     1      15.870  37.956  46.046  0.00  0.00    +0.000 OA
ENDBRANCH   1  30
TORSDOF 9
ENDMDL
MODEL 9
REMARK VINA RESULT:      -5.5      2.223      7.370
REMARK  Name = 323647
REMARK  10 active torsions:
REMARK  status: ('A' for Active; 'I' for Inactive)
REMARK    1  A    between atoms: C_2  and  CA_4
REMARK    2  A    between atoms: CA_4  and  N_5
REMARK    3  A    between atoms: C_6  and  C_8
REMARK    4  A    between atoms: C_7  and  C_10
REMARK    5  A    between atoms: C_10  and  C_13
REMARK    6  A    between atoms: C_13  and  C_16
REMARK    7  A    between atoms: C_17  and  O_20
REMARK    8  A    between atoms: O_20  and  C_23
REMARK    9  A    between atoms: C_24  and  C_27
REMARK   10  A    between atoms: C_27  and  C_30
REMARK                            x       y       z     vdW  Elec       q    Type
REMARK                         _______ _______ _______ _____ _____    ______ ____
ROOT
ATOM      1  CA  UNL     1      18.717  40.884  43.285  0.00  0.00    +0.000 C 
ATOM      2  C   UNL     1      19.980  40.979  42.824  0.00  0.00    +0.000 C 
ENDROOT
BRANCH   2   3
ATOM      3  C   UNL     1      21.165  40.692  43.643  0.00  0.00    +0.000 A 
ATOM      4  C   UNL     1      21.769  41.714  44.380  0.00  0.00    +0.000 A 
ATOM      5  C   UNL     1      21.691  39.397  43.689  0.00  0.00    +0.000 A 
ATOM      6  C   UNL     1      22.892  41.440  45.162  0.00  0.00    +0.000 A 
ATOM      7  C   UNL     1      22.790  39.113  44.508  0.00  0.00    +0.000 A 
ATOM      8  C   UNL     1      23.365  40.126  45.278  0.00  0.00    +0.000 A 
BRANCH   8   9
ATOM      9  O   UNL     1      24.381  39.773  46.151  0.00  0.00    +0.000 OA
BRANCH   9  10
ATOM     10  C   UNL     1      24.745  40.682  47.132  0.00  0.00    +0.000 A 
ATOM     11  C   UNL     1      23.789  41.120  48.065  0.00  0.00    +0.000 A 
ATOM     12  C   UNL     1      26.058  41.200  47.196  0.00  0.00    +0.000 A 
ATOM     13  C   UNL     1      24.213  42.024  49.067  0.00  0.00    +0.000 A 
ATOM     14  C   UNL     1      26.463  42.036  48.232  0.00  0.00    +0.000 A 
ATOM     15  C   UNL     1      25.536  42.450  49.172  0.00  0.00    +0.000 A 
BRANCH  11  16
ATOM     16  C   UNL     1      22.308  40.793  48.078  0.00  0.00    +0.000 C 
ATOM     17  C   UNL     1      21.287  41.908  47.936  0.00  0.00    +0.000 C 
ENDBRANCH  11  16
ENDBRANCH   9  10
ENDBRANCH   8   9
ENDBRANCH   2   3
BRANCH   1  18
ATOM     18  N   UNL     1      18.464  40.688  44.635  0.00  0.00    +0.000 N 
ATOM     19  C   UNL     1      18.264  41.729  45.521  0.00  0.00    +0.000 C 
ATOM     20  O   UNL     1      18.387  42.914  45.239  0.00  0.00    +0.000 OA
ATOM     21  H   UNL     1      18.424  39.765  44.976  0.00  0.00    +0.000 HD
BRANCH  19  22
ATOM     22  C   UNL     1      17.791  41.259  46.896  0.00  0.00    +0.000 C 
BRANCH  22  23
ATOM     23  C   UNL     1      16.518  40.413  46.805  0.00  0.00    +0.000 C 
BRANCH  23  24
ATOM     24  C   UNL     1      16.767  38.909  46.659  0.00  0.00    +0.000 C 
ATOM     25  C   UNL     1      17.946  38.627  45.723  0.00  0.00    +0.000 C 
ATOM     26  C   UNL     1      15.626  38.139  45.997  0.00  0.00    +0.000 C 
ATOM     27  C   UNL     1      17.732  37.209  45.202  0.00  0.00    +0.000 C 
ATOM     28  C   UNL     1      16.280  36.853  45.508  0.00  0.00    +0.000 C 
ENDBRANCH  23  24
ENDBRANCH  22  23
ENDBRANCH  19  22
ENDBRANCH   1  18
BRANCH   1  30
ATOM     29  O   UNL     1      16.463  40.639  42.535  0.00  0.00    +0.000 OA
ATOM     30  C   UNL     1      17.518  41.237  42.448  0.00  0.00    +0.000 C 
ATOM     31  OXT UNL     1      17.655  42.317  41.642  0.00  0.00    +0.000 OA
ENDBRANCH   1  30
TORSDOF 9
ENDMDL
