MODEL 1
REMARK VINA RESULT:      -8.5      0.000      0.000
REMARK  Name = 322719
REMARK  8 active torsions:
REMARK  status: ('A' for Active; 'I' for Inactive)
REMARK    1  A    between atoms: C_3  and  O_5
REMARK    2  A    between atoms: O_5  and  C_8
REMARK    3  A    between atoms: C_14  and  C_15
REMARK    4  A    between atoms: CA_16  and  N_17
REMARK    5  A    between atoms: CA_16  and  C_18
REMARK    6  A    between atoms: C_19  and  C_23
REMARK    7  A    between atoms: C_23  and  O_24
REMARK    8  A    between atoms: C_23  and  C_25
REMARK                            x       y       z     vdW  Elec       q    Type
REMARK                         _______ _______ _______ _____ _____    ______ ____
ROOT
ATOM      1  C   UNL     1      18.985  42.234  46.038  0.00  0.00    +0.000 A 
ATOM      2  C   UNL     1      20.153  42.554  45.349  0.00  0.00    +0.000 A 
ATOM      3  C   UNL     1      18.955  42.324  47.431  0.00  0.00    +0.000 A 
ATOM      4  C   UNL     1      21.346  42.705  46.067  0.00  0.00    +0.000 A 
ATOM      5  C   UNL     1      20.135  42.527  48.146  0.00  0.00    +0.000 A 
ATOM      6  C   UNL     1      21.351  42.637  47.464  0.00  0.00    +0.000 A 
ENDROOT
BRANCH   6   7
ATOM      7  C   UNL     1      22.598  42.473  48.217  0.00  0.00    +0.000 C 
ATOM      8  CA  UNL     1      23.701  41.769  47.907  0.00  0.00    +0.000 C 
BRANCH   8   9
ATOM      9  N   UNL     1      23.844  40.896  46.846  0.00  0.00    +0.000 N 
ATOM     10  C   UNL     1      23.670  39.523  46.945  0.00  0.00    +0.000 C 
ATOM     11  O   UNL     1      23.417  38.919  47.980  0.00  0.00    +0.000 OA
ATOM     12  H   UNL     1      24.084  41.271  45.968  0.00  0.00    +0.000 HD
BRANCH  10  13
ATOM     13  C   UNL     1      24.012  38.814  45.633  0.00  0.00    +0.000 C 
ATOM     14  C   UNL     1      23.105  39.256  44.495  0.00  0.00    +0.000 C 
BRANCH  13  15
ATOM     15  O   UNL     1      23.860  37.408  45.874  0.00  0.00    +0.000 OA
ATOM     16  H   UNL     1      23.199  37.269  46.570  0.00  0.00    +0.000 HD
ENDBRANCH  13  15
ENDBRANCH  10  13
ENDBRANCH   8   9
BRANCH   8  17
ATOM     17  C   UNL     1      24.893  42.006  48.784  0.00  0.00    +0.000 C 
ATOM     18  O   UNL     1      26.039  41.688  48.525  0.00  0.00    +0.000 OA
ATOM     19  OXT UNL     1      24.540  42.631  49.934  0.00  0.00    +0.000 OA
ENDBRANCH   8  17
ENDBRANCH   6   7
BRANCH   1  20
ATOM     20  O   UNL     1      17.820  41.808  45.457  0.00  0.00    +0.000 OA
BRANCH  20  23
ATOM     21  I   UNL     1      19.416  39.129  43.617  0.00  0.00    +0.000 I 
ATOM     22  C   UNL     1      17.757  39.342  44.908  0.00  0.00    +0.000 A 
ATOM     23  C   UNL     1      17.364  40.512  45.578  0.00  0.00    +0.000 A 
ATOM     24  C   UNL     1      17.120  38.122  45.202  0.00  0.00    +0.000 A 
ATOM     25  C   UNL     1      16.445  40.390  46.637  0.00  0.00    +0.000 A 
ATOM     26  C   UNL     1      16.188  38.031  46.235  0.00  0.00    +0.000 A 
ATOM     27  C   UNL     1      15.877  39.161  46.978  0.00  0.00    +0.000 A 
ENDBRANCH  20  23
ENDBRANCH   1  20
TORSDOF 7
ENDMDL
MODEL 2
REMARK VINA RESULT:      -8.5      2.726      7.477
REMARK  Name = 322719
REMARK  8 active torsions:
REMARK  status: ('A' for Active; 'I' for Inactive)
REMARK    1  A    between atoms: C_3  and  O_5
REMARK    2  A    between atoms: O_5  and  C_8
REMARK    3  A    between atoms: C_14  and  C_15
REMARK    4  A    between atoms: CA_16  and  N_17
REMARK    5  A    between atoms: CA_16  and  C_18
REMARK    6  A    between atoms: C_19  and  C_23
REMARK    7  A    between atoms: C_23  and  O_24
REMARK    8  A    between atoms: C_23  and  C_25
REMARK                            x       y       z     vdW  Elec       q    Type
REMARK                         _______ _______ _______ _____ _____    ______ ____
ROOT
ATOM      1  C   UNL     1      21.884  41.292  47.031  0.00  0.00    +0.000 A 
ATOM      2  C   UNL     1      21.130  42.447  46.840  0.00  0.00    +0.000 A 
ATOM      3  C   UNL     1      22.048  40.388  45.979  0.00  0.00    +0.000 A 
ATOM      4  C   UNL     1      20.336  42.559  45.692  0.00  0.00    +0.000 A 
ATOM      5  C   UNL     1      21.296  40.528  44.813  0.00  0.00    +0.000 A 
ATOM      6  C   UNL     1      20.374  41.573  44.701  0.00  0.00    +0.000 A 
ENDROOT
BRANCH   6   7
ATOM      7  C   UNL     1      19.343  41.495  43.661  0.00  0.00    +0.000 C 
ATOM      8  CA  UNL     1      18.197  40.794  43.640  0.00  0.00    +0.000 C 
BRANCH   8   9
ATOM      9  N   UNL     1      17.801  39.843  44.562  0.00  0.00    +0.000 N 
ATOM     10  C   UNL     1      16.988  40.116  45.653  0.00  0.00    +0.000 C 
ATOM     11  O   UNL     1      16.566  41.226  45.956  0.00  0.00    +0.000 OA
ATOM     12  H   UNL     1      18.114  38.919  44.437  0.00  0.00    +0.000 HD
BRANCH  10  13
ATOM     13  C   UNL     1      16.821  38.891  46.553  0.00  0.00    +0.000 C 
ATOM     14  C   UNL     1      16.555  37.627  45.751  0.00  0.00    +0.000 C 
BRANCH  13  15
ATOM     15  O   UNL     1      15.718  39.170  47.426  0.00  0.00    +0.000 OA
ATOM     16  H   UNL     1      14.887  38.946  46.979  0.00  0.00    +0.000 HD
ENDBRANCH  13  15
ENDBRANCH  10  13
ENDBRANCH   8   9
BRANCH   8  17
ATOM     17  C   UNL     1      17.251  41.124  42.526  0.00  0.00    +0.000 C 
ATOM     18  O   UNL     1      16.185  40.576  42.314  0.00  0.00    +0.000 OA
ATOM     19  OXT UNL     1      17.732  42.131  41.756  0.00  0.00    +0.000 OA
ENDBRANCH   8  17
ENDBRANCH   6   7
BRANCH   1  20
ATOM     20  O   UNL     1      22.494  40.934  48.205  0.00  0.00    +0.000 OA
BRANCH  20  23
ATOM     21  I   UNL     1      25.565  40.578  46.320  0.00  0.00    +0.000 I 
ATOM     22  C   UNL     1      24.964  41.461  48.143  0.00  0.00    +0.000 A 
ATOM     23  C   UNL     1      23.655  41.532  48.647  0.00  0.00    +0.000 A 
ATOM     24  C   UNL     1      26.000  42.162  48.790  0.00  0.00    +0.000 A 
ATOM     25  C   UNL     1      23.400  42.431  49.699  0.00  0.00    +0.000 A 
ATOM     26  C   UNL     1      25.728  43.024  49.851  0.00  0.00    +0.000 A 
ATOM     27  C   UNL     1      24.419  43.186  50.283  0.00  0.00    +0.000 A 
ENDBRANCH  20  23
ENDBRANCH   1  20
TORSDOF 7
ENDMDL
MODEL 3
REMARK VINA RESULT:      -7.9      3.229      7.369
REMARK  Name = 322719
REMARK  8 active torsions:
REMARK  status: ('A' for Active; 'I' for Inactive)
REMARK    1  A    between atoms: C_3  and  O_5
REMARK    2  A    between atoms: O_5  and  C_8
REMARK    3  A    between atoms: C_14  and  C_15
REMARK    4  A    between atoms: CA_16  and  N_17
REMARK    5  A    between atoms: CA_16  and  C_18
REMARK    6  A    between atoms: C_19  and  C_23
REMARK    7  A    between atoms: C_23  and  O_24
REMARK    8  A    between atoms: C_23  and  C_25
REMARK                            x       y       z     vdW  Elec       q    Type
REMARK                         _______ _______ _______ _____ _____    ______ ____
ROOT
ATOM      1  C   UNL     1      21.026  42.097  47.218  0.00  0.00    +0.000 A 
ATOM      2  C   UNL     1      19.757  41.552  47.394  0.00  0.00    +0.000 A 
ATOM      3  C   UNL     1      21.317  42.817  46.057  0.00  0.00    +0.000 A 
ATOM      4  C   UNL     1      18.879  41.506  46.304  0.00  0.00    +0.000 A 
ATOM      5  C   UNL     1      20.419  42.816  44.989  0.00  0.00    +0.000 A 
ATOM      6  C   UNL     1      19.229  42.089  45.082  0.00  0.00    +0.000 A 
ENDROOT
BRANCH   6   7
ATOM      7  C   UNL     1      18.489  41.788  43.852  0.00  0.00    +0.000 C 
ATOM      8  CA  UNL     1      17.426  40.987  43.665  0.00  0.00    +0.000 C 
BRANCH   8   9
ATOM      9  N   UNL     1      16.874  40.127  44.595  0.00  0.00    +0.000 N 
ATOM     10  C   UNL     1      17.218  38.788  44.710  0.00  0.00    +0.000 C 
ATOM     11  O   UNL     1      18.008  38.199  43.981  0.00  0.00    +0.000 OA
ATOM     12  H   UNL     1      16.196  40.486  45.212  0.00  0.00    +0.000 HD
BRANCH  10  13
ATOM     13  C   UNL     1      16.354  38.070  45.748  0.00  0.00    +0.000 C 
ATOM     14  C   UNL     1      16.074  38.946  46.959  0.00  0.00    +0.000 C 
BRANCH  13  15
ATOM     15  O   UNL     1      17.076  36.894  46.140  0.00  0.00    +0.000 OA
ATOM     16  H   UNL     1      16.682  36.526  46.946  0.00  0.00    +0.000 HD
ENDBRANCH  13  15
ENDBRANCH  10  13
ENDBRANCH   8   9
BRANCH   8  17
ATOM     17  C   UNL     1      16.762  41.088  42.325  0.00  0.00    +0.000 C 
ATOM     18  O   UNL     1      15.707  40.567  42.015  0.00  0.00    +0.000 OA
ATOM     19  OXT UNL     1      17.493  41.846  41.471  0.00  0.00    +0.000 OA
ENDBRANCH   8  17
ENDBRANCH   6   7
BRANCH   1  20
ATOM     20  O   UNL     1      22.065  41.977  48.103  0.00  0.00    +0.000 OA
BRANCH  20  23
ATOM     21  I   UNL     1      24.955  42.959  50.050  0.00  0.00    +0.000 I 
ATOM     22  C   UNL     1      24.587  41.928  48.244  0.00  0.00    +0.000 A 
ATOM     23  C   UNL     1      23.331  41.597  47.710  0.00  0.00    +0.000 A 
ATOM     24  C   UNL     1      25.756  41.418  47.646  0.00  0.00    +0.000 A 
ATOM     25  C   UNL     1      23.282  40.638  46.682  0.00  0.00    +0.000 A 
ATOM     26  C   UNL     1      25.684  40.491  46.607  0.00  0.00    +0.000 A 
ATOM     27  C   UNL     1      24.442  40.073  46.148  0.00  0.00    +0.000 A 
ENDBRANCH  20  23
ENDBRANCH   1  20
TORSDOF 7
ENDMDL
MODEL 4
REMARK VINA RESULT:      -7.7      1.937      3.514
REMARK  Name = 322719
REMARK  8 active torsions:
REMARK  status: ('A' for Active; 'I' for Inactive)
REMARK    1  A    between atoms: C_3  and  O_5
REMARK    2  A    between atoms: O_5  and  C_8
REMARK    3  A    between atoms: C_14  and  C_15
REMARK    4  A    between atoms: CA_16  and  N_17
REMARK    5  A    between atoms: CA_16  and  C_18
REMARK    6  A    between atoms: C_19  and  C_23
REMARK    7  A    between atoms: C_23  and  O_24
REMARK    8  A    between atoms: C_23  and  C_25
REMARK                            x       y       z     vdW  Elec       q    Type
REMARK                         _______ _______ _______ _____ _____    ______ ____
ROOT
ATOM      1  C   UNL     1      19.348  40.351  43.645  0.00  0.00    +0.000 A 
ATOM      2  C   UNL     1      20.100  39.199  43.427  0.00  0.00    +0.000 A 
ATOM      3  C   UNL     1      19.992  41.579  43.806  0.00  0.00    +0.000 A 
ATOM      4  C   UNL     1      21.485  39.242  43.632  0.00  0.00    +0.000 A 
ATOM      5  C   UNL     1      21.377  41.629  43.958  0.00  0.00    +0.000 A 
ATOM      6  C   UNL     1      22.121  40.445  43.953  0.00  0.00    +0.000 A 
ENDROOT
BRANCH   6   7
ATOM      7  C   UNL     1      23.489  40.470  44.480  0.00  0.00    +0.000 C 
ATOM      8  CA  UNL     1      23.941  40.889  45.674  0.00  0.00    +0.000 C 
BRANCH   8   9
ATOM      9  N   UNL     1      23.208  41.550  46.641  0.00  0.00    +0.000 N 
ATOM     10  C   UNL     1      22.454  40.909  47.613  0.00  0.00    +0.000 C 
ATOM     11  O   UNL     1      22.306  39.696  47.702  0.00  0.00    +0.000 OA
ATOM     12  H   UNL     1      23.224  42.535  46.641  0.00  0.00    +0.000 HD
BRANCH  10  13
ATOM     13  C   UNL     1      21.665  41.906  48.465  0.00  0.00    +0.000 C 
ATOM     14  C   UNL     1      20.689  42.720  47.630  0.00  0.00    +0.000 C 
BRANCH  13  15
ATOM     15  O   UNL     1      22.629  42.767  49.087  0.00  0.00    +0.000 OA
ATOM     16  H   UNL     1      23.373  42.237  49.412  0.00  0.00    +0.000 HD
ENDBRANCH  13  15
ENDBRANCH  10  13
ENDBRANCH   8   9
BRANCH   8  17
ATOM     17  C   UNL     1      25.368  40.554  45.985  0.00  0.00    +0.000 C 
ATOM     18  O   UNL     1      25.947  39.536  45.654  0.00  0.00    +0.000 OA
ATOM     19  OXT UNL     1      25.959  41.543  46.700  0.00  0.00    +0.000 OA
ENDBRANCH   8  17
ENDBRANCH   6   7
BRANCH   1  20
ATOM     20  O   UNL     1      17.981  40.394  43.735  0.00  0.00    +0.000 OA
BRANCH  20  23
ATOM     21  I   UNL     1      17.043  42.910  46.164  0.00  0.00    +0.000 I 
ATOM     22  C   UNL     1      16.922  40.808  45.991  0.00  0.00    +0.000 A 
ATOM     23  C   UNL     1      17.305  40.036  44.882  0.00  0.00    +0.000 A 
ATOM     24  C   UNL     1      16.241  40.200  47.064  0.00  0.00    +0.000 A 
ATOM     25  C   UNL     1      16.854  38.704  44.817  0.00  0.00    +0.000 A 
ATOM     26  C   UNL     1      15.832  38.869  46.990  0.00  0.00    +0.000 A 
ATOM     27  C   UNL     1      16.108  38.130  45.848  0.00  0.00    +0.000 A 
ENDBRANCH  20  23
ENDBRANCH   1  20
TORSDOF 7
ENDMDL
MODEL 5
REMARK VINA RESULT:      -6.8      2.741      7.228
REMARK  Name = 322719
REMARK  8 active torsions:
REMARK  status: ('A' for Active; 'I' for Inactive)
REMARK    1  A    between atoms: C_3  and  O_5
REMARK    2  A    between atoms: O_5  and  C_8
REMARK    3  A    between atoms: C_14  and  C_15
REMARK    4  A    between atoms: CA_16  and  N_17
REMARK    5  A    between atoms: CA_16  and  C_18
REMARK    6  A    between atoms: C_19  and  C_23
REMARK    7  A    between atoms: C_23  and  O_24
REMARK    8  A    between atoms: C_23  and  C_25
REMARK                            x       y       z     vdW  Elec       q    Type
REMARK                         _______ _______ _______ _____ _____    ______ ____
ROOT
ATOM      1  C   UNL     1      21.558  41.992  47.744  0.00  0.00    +0.000 A 
ATOM      2  C   UNL     1      20.171  41.979  47.876  0.00  0.00    +0.000 A 
ATOM      3  C   UNL     1      22.134  42.328  46.518  0.00  0.00    +0.000 A 
ATOM      4  C   UNL     1      19.377  42.045  46.725  0.00  0.00    +0.000 A 
ATOM      5  C   UNL     1      21.338  42.446  45.378  0.00  0.00    +0.000 A 
ATOM      6  C   UNL     1      19.961  42.223  45.466  0.00  0.00    +0.000 A 
ENDROOT
BRANCH   6   7
ATOM      7  C   UNL     1      19.207  41.980  44.233  0.00  0.00    +0.000 C 
ATOM      8  CA  UNL     1      18.171  41.153  44.009  0.00  0.00    +0.000 C 
BRANCH   8   9
ATOM      9  N   UNL     1      17.672  40.208  44.887  0.00  0.00    +0.000 N 
ATOM     10  C   UNL     1      18.065  38.878  44.895  0.00  0.00    +0.000 C 
ATOM     11  O   UNL     1      18.855  38.372  44.107  0.00  0.00    +0.000 OA
ATOM     12  H   UNL     1      16.999  40.498  45.544  0.00  0.00    +0.000 HD
BRANCH  10  13
ATOM     13  C   UNL     1      17.253  38.056  45.899  0.00  0.00    +0.000 C 
ATOM     14  C   UNL     1      16.905  36.679  45.356  0.00  0.00    +0.000 C 
BRANCH  13  15
ATOM     15  O   UNL     1      16.058  38.802  46.169  0.00  0.00    +0.000 OA
ATOM     16  H   UNL     1      15.432  38.244  46.656  0.00  0.00    +0.000 HD
ENDBRANCH  13  15
ENDBRANCH  10  13
ENDBRANCH   8   9
BRANCH   8  17
ATOM     17  C   UNL     1      17.475  41.320  42.693  0.00  0.00    +0.000 C 
ATOM     18  O   UNL     1      17.792  42.103  41.817  0.00  0.00    +0.000 OA
ATOM     19  OXT UNL     1      16.418  40.478  42.587  0.00  0.00    +0.000 OA
ENDBRANCH   8  17
ENDBRANCH   6   7
BRANCH   1  20
ATOM     20  O   UNL     1      22.447  41.678  48.739  0.00  0.00    +0.000 OA
BRANCH  20  23
ATOM     21  I   UNL     1      23.926  39.461  46.289  0.00  0.00    +0.000 I 
ATOM     22  C   UNL     1      24.608  40.855  47.722  0.00  0.00    +0.000 A 
ATOM     23  C   UNL     1      23.811  41.675  48.537  0.00  0.00    +0.000 A 
ATOM     24  C   UNL     1      26.004  41.041  47.697  0.00  0.00    +0.000 A 
ATOM     25  C   UNL     1      24.428  42.760  49.186  0.00  0.00    +0.000 A 
ATOM     26  C   UNL     1      26.597  42.105  48.375  0.00  0.00    +0.000 A 
ATOM     27  C   UNL     1      25.802  42.988  49.092  0.00  0.00    +0.000 A 
ENDBRANCH  20  23
ENDBRANCH   1  20
TORSDOF 7
ENDMDL
MODEL 6
REMARK VINA RESULT:      -6.8      2.157      4.115
REMARK  Name = 322719
REMARK  8 active torsions:
REMARK  status: ('A' for Active; 'I' for Inactive)
REMARK    1  A    between atoms: C_3  and  O_5
REMARK    2  A    between atoms: O_5  and  C_8
REMARK    3  A    between atoms: C_14  and  C_15
REMARK    4  A    between atoms: CA_16  and  N_17
REMARK    5  A    between atoms: CA_16  and  C_18
REMARK    6  A    between atoms: C_19  and  C_23
REMARK    7  A    between atoms: C_23  and  O_24
REMARK    8  A    between atoms: C_23  and  C_25
REMARK                            x       y       z     vdW  Elec       q    Type
REMARK                         _______ _______ _______ _____ _____    ______ ____
ROOT
ATOM      1  C   UNL     1      18.878  40.640  43.596  0.00  0.00    +0.000 A 
ATOM      2  C   UNL     1      19.138  39.272  43.645  0.00  0.00    +0.000 A 
ATOM      3  C   UNL     1      19.933  41.541  43.438  0.00  0.00    +0.000 A 
ATOM      4  C   UNL     1      20.460  38.836  43.799  0.00  0.00    +0.000 A 
ATOM      5  C   UNL     1      21.252  41.100  43.539  0.00  0.00    +0.000 A 
ATOM      6  C   UNL     1      21.517  39.752  43.803  0.00  0.00    +0.000 A 
ENDROOT
BRANCH   6   7
ATOM      7  C   UNL     1      22.853  39.375  44.273  0.00  0.00    +0.000 C 
ATOM      8  CA  UNL     1      23.572  39.866  45.297  0.00  0.00    +0.000 C 
BRANCH   8   9
ATOM      9  N   UNL     1      23.259  40.975  46.061  0.00  0.00    +0.000 N 
ATOM     10  C   UNL     1      22.896  40.915  47.398  0.00  0.00    +0.000 C 
ATOM     11  O   UNL     1      22.764  39.883  48.046  0.00  0.00    +0.000 OA
ATOM     12  H   UNL     1      23.297  41.859  45.629  0.00  0.00    +0.000 HD
BRANCH  10  13
ATOM     13  C   UNL     1      22.497  42.290  47.937  0.00  0.00    +0.000 C 
ATOM     14  C   UNL     1      23.041  42.532  49.337  0.00  0.00    +0.000 C 
BRANCH  13  15
ATOM     15  O   UNL     1      21.063  42.327  47.946  0.00  0.00    +0.000 OA
ATOM     16  H   UNL     1      20.725  41.953  47.118  0.00  0.00    +0.000 HD
ENDBRANCH  13  15
ENDBRANCH  10  13
ENDBRANCH   8   9
BRANCH   8  17
ATOM     17  C   UNL     1      24.804  39.094  45.658  0.00  0.00    +0.000 C 
ATOM     18  O   UNL     1      24.885  37.882  45.739  0.00  0.00    +0.000 OA
ATOM     19  OXT UNL     1      25.851  39.923  45.894  0.00  0.00    +0.000 OA
ENDBRANCH   8  17
ENDBRANCH   6   7
BRANCH   1  20
ATOM     20  O   UNL     1      17.637  41.210  43.707  0.00  0.00    +0.000 OA
BRANCH  20  23
ATOM     21  I   UNL     1      16.692  39.216  46.576  0.00  0.00    +0.000 I 
ATOM     22  C   UNL     1      16.708  41.263  46.056  0.00  0.00    +0.000 A 
ATOM     23  C   UNL     1      17.205  41.820  44.866  0.00  0.00    +0.000 A 
ATOM     24  C   UNL     1      16.311  42.109  47.109  0.00  0.00    +0.000 A 
ATOM     25  C   UNL     1      17.431  43.208  44.830  0.00  0.00    +0.000 A 
ATOM     26  C   UNL     1      16.516  43.486  47.039  0.00  0.00    +0.000 A 
ATOM     27  C   UNL     1      17.111  44.033  45.910  0.00  0.00    +0.000 A 
ENDBRANCH  20  23
ENDBRANCH   1  20
TORSDOF 7
ENDMDL
MODEL 7
REMARK VINA RESULT:      -6.4      1.556      2.147
REMARK  Name = 322719
REMARK  8 active torsions:
REMARK  status: ('A' for Active; 'I' for Inactive)
REMARK    1  A    between atoms: C_3  and  O_5
REMARK    2  A    between atoms: O_5  and  C_8
REMARK    3  A    between atoms: C_14  and  C_15
REMARK    4  A    between atoms: CA_16  and  N_17
REMARK    5  A    between atoms: CA_16  and  C_18
REMARK    6  A    between atoms: C_19  and  C_23
REMARK    7  A    between atoms: C_23  and  O_24
REMARK    8  A    between atoms: C_23  and  C_25
REMARK                            x       y       z     vdW  Elec       q    Type
REMARK                         _______ _______ _______ _____ _____    ______ ____
ROOT
ATOM      1  C   UNL     1      19.139  42.204  46.566  0.00  0.00    +0.000 A 
ATOM      2  C   UNL     1      20.105  42.458  45.596  0.00  0.00    +0.000 A 
ATOM      3  C   UNL     1      19.456  42.359  47.917  0.00  0.00    +0.000 A 
ATOM      4  C   UNL     1      21.441  42.608  45.988  0.00  0.00    +0.000 A 
ATOM      5  C   UNL     1      20.780  42.561  48.308  0.00  0.00    +0.000 A 
ATOM      6  C   UNL     1      21.791  42.605  47.342  0.00  0.00    +0.000 A 
ENDROOT
BRANCH   6   7
ATOM      7  C   UNL     1      23.183  42.440  47.772  0.00  0.00    +0.000 C 
ATOM      8  CA  UNL     1      24.093  41.525  47.397  0.00  0.00    +0.000 C 
BRANCH   8   9
ATOM      9  N   UNL     1      23.862  40.412  46.612  0.00  0.00    +0.000 N 
ATOM     10  C   UNL     1      23.555  39.158  47.119  0.00  0.00    +0.000 C 
ATOM     11  O   UNL     1      23.499  38.875  48.310  0.00  0.00    +0.000 OA
ATOM     12  H   UNL     1      23.918  40.516  45.634  0.00  0.00    +0.000 HD
BRANCH  10  13
ATOM     13  C   UNL     1      23.470  38.105  46.012  0.00  0.00    +0.000 C 
ATOM     14  C   UNL     1      24.787  37.368  45.826  0.00  0.00    +0.000 C 
BRANCH  13  15
ATOM     15  O   UNL     1      23.114  38.802  44.810  0.00  0.00    +0.000 OA
ATOM     16  H   UNL     1      23.577  38.404  44.057  0.00  0.00    +0.000 HD
ENDBRANCH  13  15
ENDBRANCH  10  13
ENDBRANCH   8   9
BRANCH   8  17
ATOM     17  C   UNL     1      25.499  41.783  47.847  0.00  0.00    +0.000 C 
ATOM     18  O   UNL     1      25.834  42.556  48.725  0.00  0.00    +0.000 OA
ATOM     19  OXT UNL     1      26.384  41.036  47.141  0.00  0.00    +0.000 OA
ENDBRANCH   8  17
ENDBRANCH   6   7
BRANCH   1  20
ATOM     20  O   UNL     1      17.860  41.785  46.314  0.00  0.00    +0.000 OA
BRANCH  20  23
ATOM     21  I   UNL     1      16.621  38.399  45.981  0.00  0.00    +0.000 I 
ATOM     22  C   UNL     1      17.048  40.021  44.696  0.00  0.00    +0.000 A 
ATOM     23  C   UNL     1      17.469  41.305  45.081  0.00  0.00    +0.000 A 
ATOM     24  C   UNL     1      16.711  39.771  43.352  0.00  0.00    +0.000 A 
ATOM     25  C   UNL     1      17.390  42.339  44.130  0.00  0.00    +0.000 A 
ATOM     26  C   UNL     1      16.670  40.806  42.420  0.00  0.00    +0.000 A 
ATOM     27  C   UNL     1      16.975  42.100  42.819  0.00  0.00    +0.000 A 
ENDBRANCH  20  23
ENDBRANCH   1  20
TORSDOF 7
ENDMDL
MODEL 8
REMARK VINA RESULT:      -6.4      1.664      2.107
REMARK  Name = 322719
REMARK  8 active torsions:
REMARK  status: ('A' for Active; 'I' for Inactive)
REMARK    1  A    between atoms: C_3  and  O_5
REMARK    2  A    between atoms: O_5  and  C_8
REMARK    3  A    between atoms: C_14  and  C_15
REMARK    4  A    between atoms: CA_16  and  N_17
REMARK    5  A    between atoms: CA_16  and  C_18
REMARK    6  A    between atoms: C_19  and  C_23
REMARK    7  A    between atoms: C_23  and  O_24
REMARK    8  A    between atoms: C_23  and  C_25
REMARK                            x       y       z     vdW  Elec       q    Type
REMARK                         _______ _______ _______ _____ _____    ______ ____
ROOT
ATOM      1  C   UNL     1      19.877  41.404  44.637  0.00  0.00    +0.000 A 
ATOM      2  C   UNL     1      21.071  40.696  44.523  0.00  0.00    +0.000 A 
ATOM      3  C   UNL     1      19.870  42.658  45.250  0.00  0.00    +0.000 A 
ATOM      4  C   UNL     1      22.189  41.127  45.249  0.00  0.00    +0.000 A 
ATOM      5  C   UNL     1      21.000  43.112  45.929  0.00  0.00    +0.000 A 
ATOM      6  C   UNL     1      22.141  42.306  45.999  0.00  0.00    +0.000 A 
ENDROOT
BRANCH   6   7
ATOM      7  C   UNL     1      23.160  42.614  47.006  0.00  0.00    +0.000 C 
ATOM      8  CA  UNL     1      23.996  41.789  47.660  0.00  0.00    +0.000 C 
BRANCH   8   9
ATOM      9  N   UNL     1      23.971  40.407  47.634  0.00  0.00    +0.000 N 
ATOM     10  C   UNL     1      24.739  39.636  46.774  0.00  0.00    +0.000 C 
ATOM     11  O   UNL     1      25.487  40.079  45.910  0.00  0.00    +0.000 OA
ATOM     12  H   UNL     1      23.374  39.944  48.265  0.00  0.00    +0.000 HD
BRANCH  10  13
ATOM     13  C   UNL     1      24.407  38.148  46.901  0.00  0.00    +0.000 C 
ATOM     14  C   UNL     1      24.257  37.481  45.543  0.00  0.00    +0.000 C 
BRANCH  13  15
ATOM     15  O   UNL     1      23.180  38.063  47.637  0.00  0.00    +0.000 OA
ATOM     16  H   UNL     1      23.375  37.925  48.577  0.00  0.00    +0.000 HD
ENDBRANCH  13  15
ENDBRANCH  10  13
ENDBRANCH   8   9
BRANCH   8  17
ATOM     17  C   UNL     1      25.082  42.454  48.450  0.00  0.00    +0.000 C 
ATOM     18  O   UNL     1      26.191  42.737  48.035  0.00  0.00    +0.000 OA
ATOM     19  OXT UNL     1      24.679  42.710  49.719  0.00  0.00    +0.000 OA
ENDBRANCH   8  17
ENDBRANCH   6   7
BRANCH   1  20
ATOM     20  O   UNL     1      18.655  40.962  44.201  0.00  0.00    +0.000 OA
BRANCH  20  23
ATOM     21  I   UNL     1      16.817  42.831  46.698  0.00  0.00    +0.000 I 
ATOM     22  C   UNL     1      17.014  40.811  46.116  0.00  0.00    +0.000 A 
ATOM     23  C   UNL     1      17.761  40.321  45.032  0.00  0.00    +0.000 A 
ATOM     24  C   UNL     1      16.167  39.941  46.829  0.00  0.00    +0.000 A 
ATOM     25  C   UNL     1      17.517  39.004  44.602  0.00  0.00    +0.000 A 
ATOM     26  C   UNL     1      15.964  38.629  46.403  0.00  0.00    +0.000 A 
ATOM     27  C   UNL     1      16.613  38.170  45.265  0.00  0.00    +0.000 A 
ENDBRANCH  20  23
ENDBRANCH   1  20
TORSDOF 7
ENDMDL
MODEL 9
REMARK VINA RESULT:      -6.4      2.796      7.487
REMARK  Name = 322719
REMARK  8 active torsions:
REMARK  status: ('A' for Active; 'I' for Inactive)
REMARK    1  A    between atoms: C_3  and  O_5
REMARK    2  A    between atoms: O_5  and  C_8
REMARK    3  A    between atoms: C_14  and  C_15
REMARK    4  A    between atoms: CA_16  and  N_17
REMARK    5  A    between atoms: CA_16  and  C_18
REMARK    6  A    between atoms: C_19  and  C_23
REMARK    7  A    between atoms: C_23  and  O_24
REMARK    8  A    between atoms: C_23  and  C_25
REMARK                            x       y       z     vdW  Elec       q    Type
REMARK                         _______ _______ _______ _____ _____    ______ ____
ROOT
ATOM      1  C   UNL     1      23.544  40.068  44.799  0.00  0.00    +0.000 A 
ATOM      2  C   UNL     1      23.017  41.160  44.114  0.00  0.00    +0.000 A 
ATOM      3  C   UNL     1      22.918  38.823  44.705  0.00  0.00    +0.000 A 
ATOM      4  C   UNL     1      21.735  41.062  43.559  0.00  0.00    +0.000 A 
ATOM      5  C   UNL     1      21.663  38.713  44.105  0.00  0.00    +0.000 A 
ATOM      6  C   UNL     1      21.031  39.854  43.601  0.00  0.00    +0.000 A 
ENDROOT
BRANCH   6   7
ATOM      7  C   UNL     1      19.593  39.798  43.324  0.00  0.00    +0.000 C 
ATOM      8  CA  UNL     1      18.602  40.590  43.769  0.00  0.00    +0.000 C 
BRANCH   8   9
ATOM      9  N   UNL     1      18.709  41.572  44.736  0.00  0.00    +0.000 N 
ATOM     10  C   UNL     1      18.190  41.454  46.017  0.00  0.00    +0.000 C 
ATOM     11  O   UNL     1      17.541  40.499  46.429  0.00  0.00    +0.000 OA
ATOM     12  H   UNL     1      19.181  42.403  44.501  0.00  0.00    +0.000 HD
BRANCH  10  13
ATOM     13  C   UNL     1      18.363  42.746  46.818  0.00  0.00    +0.000 C 
ATOM     14  C   UNL     1      17.052  43.500  46.971  0.00  0.00    +0.000 C 
BRANCH  13  15
ATOM     15  O   UNL     1      19.318  43.545  46.106  0.00  0.00    +0.000 OA
ATOM     16  H   UNL     1      18.852  44.154  45.513  0.00  0.00    +0.000 HD
ENDBRANCH  13  15
ENDBRANCH  10  13
ENDBRANCH   8   9
BRANCH   8  17
ATOM     17  C   UNL     1      17.272  40.407  43.103  0.00  0.00    +0.000 C 
ATOM     18  O   UNL     1      16.809  41.120  42.233  0.00  0.00    +0.000 OA
ATOM     19  OXT UNL     1      16.622  39.324  43.597  0.00  0.00    +0.000 OA
ENDBRANCH   8  17
ENDBRANCH   6   7
BRANCH   1  20
ATOM     20  O   UNL     1      24.653  40.102  45.602  0.00  0.00    +0.000 OA
BRANCH  20  23
ATOM     21  I   UNL     1      21.650  40.825  47.491  0.00  0.00    +0.000 I 
ATOM     22  C   UNL     1      23.693  41.355  47.575  0.00  0.00    +0.000 A 
ATOM     23  C   UNL     1      24.717  40.875  46.743  0.00  0.00    +0.000 A 
ATOM     24  C   UNL     1      24.016  42.151  48.691  0.00  0.00    +0.000 A 
ATOM     25  C   UNL     1      26.049  41.082  47.147  0.00  0.00    +0.000 A 
ATOM     26  C   UNL     1      25.344  42.369  49.055  0.00  0.00    +0.000 A 
ATOM     27  C   UNL     1      26.363  41.802  48.301  0.00  0.00    +0.000 A 
ENDBRANCH  20  23
ENDBRANCH   1  20
TORSDOF 7
ENDMDL
