MODEL 1
REMARK VINA RESULT:      -8.2      0.000      0.000
REMARK  Name = 323592
REMARK  7 active torsions:
REMARK  status: ('A' for Active; 'I' for Inactive)
REMARK    1  A    between atoms: C_3  and  O_5
REMARK    2  A    between atoms: O_5  and  C_8
REMARK    3  A    between atoms: C_14  and  C_15
REMARK    4  A    between atoms: CA_16  and  N_17
REMARK    5  A    between atoms: CA_16  and  C_18
REMARK    6  A    between atoms: C_19  and  C_23
REMARK    7  A    between atoms: C_23  and  C_24
REMARK                            x       y       z     vdW  Elec       q    Type
REMARK                         _______ _______ _______ _____ _____    ______ ____
ROOT
ATOM      1  C   UNL     1      20.362  41.976  43.958  0.00  0.00    +0.000 C 
ATOM      2  CA  UNL     1      19.098  42.055  43.516  0.00  0.00    +0.000 C 
ENDROOT
BRANCH   1   8
ATOM      3  C   UNL     1      22.381  40.613  47.411  0.00  0.00    +0.000 A 
ATOM      4  C   UNL     1      22.301  39.773  46.300  0.00  0.00    +0.000 A 
ATOM      5  C   UNL     1      21.566  41.745  47.488  0.00  0.00    +0.000 A 
ATOM      6  C   UNL     1      21.538  40.157  45.190  0.00  0.00    +0.000 A 
ATOM      7  C   UNL     1      20.828  42.140  46.374  0.00  0.00    +0.000 A 
ATOM      8  C   UNL     1      20.856  41.375  45.201  0.00  0.00    +0.000 A 
BRANCH   3   9
ATOM      9  O   UNL     1      23.317  40.317  48.380  0.00  0.00    +0.000 OA
BRANCH   9  12
ATOM     10 BR   UNL     1      25.705  40.610  46.443  0.00  0.00    +0.000 Br
ATOM     11  C   UNL     1      25.330  41.574  48.034  0.00  0.00    +0.000 A 
ATOM     12  C   UNL     1      24.169  41.337  48.780  0.00  0.00    +0.000 A 
ATOM     13  C   UNL     1      26.253  42.542  48.451  0.00  0.00    +0.000 A 
ATOM     14  C   UNL     1      23.905  42.152  49.893  0.00  0.00    +0.000 A 
ATOM     15  C   UNL     1      26.015  43.287  49.607  0.00  0.00    +0.000 A 
ATOM     16  C   UNL     1      24.835  43.102  50.320  0.00  0.00    +0.000 A 
ENDBRANCH   9  12
ENDBRANCH   3   9
ENDBRANCH   1   8
BRANCH   2  17
ATOM     17  N   UNL     1      18.012  41.421  44.099  0.00  0.00    +0.000 N 
ATOM     18  C   UNL     1      17.351  42.021  45.169  0.00  0.00    +0.000 C 
ATOM     19  O   UNL     1      17.653  43.127  45.604  0.00  0.00    +0.000 OA
ATOM     20  H   UNL     1      17.707  40.550  43.758  0.00  0.00    +0.000 HD
BRANCH  18  21
ATOM     21  C   UNL     1      16.313  41.108  45.809  0.00  0.00    +0.000 C 
BRANCH  21  22
ATOM     22  C   UNL     1      16.882  40.133  46.863  0.00  0.00    +0.000 C 
ATOM     23  C   UNL     1      18.247  39.527  46.481  0.00  0.00    +0.000 C 
ATOM     24  C   UNL     1      15.891  38.987  47.151  0.00  0.00    +0.000 C 
ATOM     25  C   UNL     1      18.161  38.541  45.318  0.00  0.00    +0.000 C 
ATOM     26  C   UNL     1      15.791  37.974  46.008  0.00  0.00    +0.000 C 
ATOM     27  C   UNL     1      17.156  37.429  45.599  0.00  0.00    +0.000 C 
ENDBRANCH  21  22
ENDBRANCH  18  21
ENDBRANCH   2  17
BRANCH   2  28
ATOM     28  C   UNL     1      18.871  42.947  42.336  0.00  0.00    +0.000 C 
ATOM     29  O   UNL     1      19.503  43.963  42.094  0.00  0.00    +0.000 OA
ATOM     30  OXT UNL     1      17.827  42.524  41.587  0.00  0.00    +0.000 OA
ENDBRANCH   2  28
TORSDOF 7
ENDMDL
MODEL 2
REMARK VINA RESULT:      -8.2      3.235      6.806
REMARK  Name = 323592
REMARK  7 active torsions:
REMARK  status: ('A' for Active; 'I' for Inactive)
REMARK    1  A    between atoms: C_3  and  O_5
REMARK    2  A    between atoms: O_5  and  C_8
REMARK    3  A    between atoms: C_14  and  C_15
REMARK    4  A    between atoms: CA_16  and  N_17
REMARK    5  A    between atoms: CA_16  and  C_18
REMARK    6  A    between atoms: C_19  and  C_23
REMARK    7  A    between atoms: C_23  and  C_24
REMARK                            x       y       z     vdW  Elec       q    Type
REMARK                         _______ _______ _______ _____ _____    ______ ____
ROOT
ATOM      1  C   UNL     1      25.515  40.714  46.598  0.00  0.00    +0.000 C 
ATOM      2  CA  UNL     1      25.228  41.652  47.512  0.00  0.00    +0.000 C 
ENDROOT
BRANCH   1   8
ATOM      3  C   UNL     1      22.418  39.296  44.098  0.00  0.00    +0.000 A 
ATOM      4  C   UNL     1      22.867  38.486  45.141  0.00  0.00    +0.000 A 
ATOM      5  C   UNL     1      23.166  40.408  43.708  0.00  0.00    +0.000 A 
ATOM      6  C   UNL     1      23.969  38.885  45.907  0.00  0.00    +0.000 A 
ATOM      7  C   UNL     1      24.247  40.819  44.486  0.00  0.00    +0.000 A 
ATOM      8  C   UNL     1      24.617  40.088  45.621  0.00  0.00    +0.000 A 
BRANCH   3   9
ATOM      9  O   UNL     1      21.202  38.991  43.521  0.00  0.00    +0.000 OA
BRANCH   9  12
ATOM     10 BR   UNL     1      18.387  37.971  44.280  0.00  0.00    +0.000 Br
ATOM     11  C   UNL     1      18.919  39.701  43.711  0.00  0.00    +0.000 A 
ATOM     12  C   UNL     1      20.259  40.006  43.442  0.00  0.00    +0.000 A 
ATOM     13  C   UNL     1      17.928  40.681  43.565  0.00  0.00    +0.000 A 
ATOM     14  C   UNL     1      20.598  41.331  43.118  0.00  0.00    +0.000 A 
ATOM     15  C   UNL     1      18.271  41.972  43.162  0.00  0.00    +0.000 A 
ATOM     16  C   UNL     1      19.607  42.301  42.952  0.00  0.00    +0.000 A 
ENDBRANCH   9  12
ENDBRANCH   3   9
ENDBRANCH   1   8
BRANCH   2  17
ATOM     17  N   UNL     1      24.026  42.338  47.596  0.00  0.00    +0.000 N 
ATOM     18  C   UNL     1      22.906  41.710  48.136  0.00  0.00    +0.000 C 
ATOM     19  O   UNL     1      22.935  40.575  48.597  0.00  0.00    +0.000 OA
ATOM     20  H   UNL     1      23.965  43.267  47.275  0.00  0.00    +0.000 HD
BRANCH  18  21
ATOM     21  C   UNL     1      21.633  42.533  47.974  0.00  0.00    +0.000 C 
BRANCH  21  22
ATOM     22  C   UNL     1      20.911  42.334  46.623  0.00  0.00    +0.000 C 
ATOM     23  C   UNL     1      19.917  43.460  46.275  0.00  0.00    +0.000 C 
ATOM     24  C   UNL     1      20.168  40.984  46.584  0.00  0.00    +0.000 C 
ATOM     25  C   UNL     1      18.679  43.464  47.167  0.00  0.00    +0.000 C 
ATOM     26  C   UNL     1      18.914  40.960  47.461  0.00  0.00    +0.000 C 
ATOM     27  C   UNL     1      17.968  42.115  47.147  0.00  0.00    +0.000 C 
ENDBRANCH  21  22
ENDBRANCH  18  21
ENDBRANCH   2  17
BRANCH   2  28
ATOM     28  C   UNL     1      26.286  41.914  48.537  0.00  0.00    +0.000 C 
ATOM     29  O   UNL     1      27.343  41.309  48.624  0.00  0.00    +0.000 OA
ATOM     30  OXT UNL     1      25.905  42.875  49.410  0.00  0.00    +0.000 OA
ENDBRANCH   2  28
TORSDOF 7
ENDMDL
MODEL 3
REMARK VINA RESULT:      -7.7      2.982      6.758
REMARK  Name = 323592
REMARK  7 active torsions:
REMARK  status: ('A' for Active; 'I' for Inactive)
REMARK    1  A    between atoms: C_3  and  O_5
REMARK    2  A    between atoms: O_5  and  C_8
REMARK    3  A    between atoms: C_14  and  C_15
REMARK    4  A    between atoms: CA_16  and  N_17
REMARK    5  A    between atoms: CA_16  and  C_18
REMARK    6  A    between atoms: C_19  and  C_23
REMARK    7  A    between atoms: C_23  and  C_24
REMARK                            x       y       z     vdW  Elec       q    Type
REMARK                         _______ _______ _______ _____ _____    ______ ____
ROOT
ATOM      1  C   UNL     1      23.827  40.307  44.752  0.00  0.00    +0.000 C 
ATOM      2  CA  UNL     1      24.019  41.025  45.869  0.00  0.00    +0.000 C 
ENDROOT
BRANCH   1   8
ATOM      3  C   UNL     1      19.879  39.731  43.361  0.00  0.00    +0.000 A 
ATOM      4  C   UNL     1      20.537  38.669  43.982  0.00  0.00    +0.000 A 
ATOM      5  C   UNL     1      20.601  40.851  42.945  0.00  0.00    +0.000 A 
ATOM      6  C   UNL     1      21.883  38.801  44.345  0.00  0.00    +0.000 A 
ATOM      7  C   UNL     1      21.934  40.993  43.329  0.00  0.00    +0.000 A 
ATOM      8  C   UNL     1      22.563  39.992  44.079  0.00  0.00    +0.000 A 
BRANCH   3   9
ATOM      9  O   UNL     1      18.508  39.653  43.231  0.00  0.00    +0.000 OA
BRANCH   9  12
ATOM     10 BR   UNL     1      17.071  42.361  43.611  0.00  0.00    +0.000 Br
ATOM     11  C   UNL     1      17.071  40.837  44.742  0.00  0.00    +0.000 A 
ATOM     12  C   UNL     1      17.753  39.665  44.395  0.00  0.00    +0.000 A 
ATOM     13  C   UNL     1      16.364  40.913  45.949  0.00  0.00    +0.000 A 
ATOM     14  C   UNL     1      17.633  38.542  45.231  0.00  0.00    +0.000 A 
ATOM     15  C   UNL     1      16.322  39.814  46.809  0.00  0.00    +0.000 A 
ATOM     16  C   UNL     1      16.945  38.625  46.443  0.00  0.00    +0.000 A 
ENDBRANCH   9  12
ENDBRANCH   3   9
ENDBRANCH   1   8
BRANCH   2  17
ATOM     17  N   UNL     1      23.039  41.756  46.522  0.00  0.00    +0.000 N 
ATOM     18  C   UNL     1      22.395  41.216  47.633  0.00  0.00    +0.000 C 
ATOM     19  O   UNL     1      22.687  40.124  48.107  0.00  0.00    +0.000 OA
ATOM     20  H   UNL     1      22.798  42.656  46.202  0.00  0.00    +0.000 HD
BRANCH  18  21
ATOM     21  C   UNL     1      21.221  42.064  48.106  0.00  0.00    +0.000 C 
BRANCH  21  22
ATOM     22  C   UNL     1      19.876  41.731  47.424  0.00  0.00    +0.000 C 
ATOM     23  C   UNL     1      19.778  42.217  45.964  0.00  0.00    +0.000 C 
ATOM     24  C   UNL     1      18.690  42.309  48.222  0.00  0.00    +0.000 C 
ATOM     25  C   UNL     1      19.696  43.736  45.842  0.00  0.00    +0.000 C 
ATOM     26  C   UNL     1      18.574  43.831  48.110  0.00  0.00    +0.000 C 
ATOM     27  C   UNL     1      18.540  44.303  46.660  0.00  0.00    +0.000 C 
ENDBRANCH  21  22
ENDBRANCH  18  21
ENDBRANCH   2  17
BRANCH   2  28
ATOM     28  C   UNL     1      25.393  40.965  46.458  0.00  0.00    +0.000 C 
ATOM     29  O   UNL     1      25.879  41.809  47.192  0.00  0.00    +0.000 OA
ATOM     30  OXT UNL     1      26.071  39.876  46.026  0.00  0.00    +0.000 OA
ENDBRANCH   2  28
TORSDOF 7
ENDMDL
MODEL 4
REMARK VINA RESULT:      -6.8      2.618      7.726
REMARK  Name = 323592
REMARK  7 active torsions:
REMARK  status: ('A' for Active; 'I' for Inactive)
REMARK    1  A    between atoms: C_3  and  O_5
REMARK    2  A    between atoms: O_5  and  C_8
REMARK    3  A    between atoms: C_14  and  C_15
REMARK    4  A    between atoms: CA_16  and  N_17
REMARK    5  A    between atoms: CA_16  and  C_18
REMARK    6  A    between atoms: C_19  and  C_23
REMARK    7  A    between atoms: C_23  and  C_24
REMARK                            x       y       z     vdW  Elec       q    Type
REMARK                         _______ _______ _______ _____ _____    ______ ____
ROOT
ATOM      1  C   UNL     1      23.015  39.897  44.267  0.00  0.00    +0.000 C 
ATOM      2  CA  UNL     1      23.533  39.922  45.504  0.00  0.00    +0.000 C 
ENDROOT
BRANCH   1   8
ATOM      3  C   UNL     1      18.929  40.832  43.736  0.00  0.00    +0.000 A 
ATOM      4  C   UNL     1      19.370  39.542  43.440  0.00  0.00    +0.000 A 
ATOM      5  C   UNL     1      19.855  41.861  43.915  0.00  0.00    +0.000 A 
ATOM      6  C   UNL     1      20.737  39.243  43.496  0.00  0.00    +0.000 A 
ATOM      7  C   UNL     1      21.214  41.559  43.997  0.00  0.00    +0.000 A 
ATOM      8  C   UNL     1      21.653  40.238  43.843  0.00  0.00    +0.000 A 
BRANCH   3   9
ATOM      9  O   UNL     1      17.573  41.030  43.897  0.00  0.00    +0.000 OA
BRANCH   9  12
ATOM     10 BR   UNL     1      16.979  42.881  46.297  0.00  0.00    +0.000 Br
ATOM     11  C   UNL     1      16.643  41.023  46.108  0.00  0.00    +0.000 A 
ATOM     12  C   UNL     1      16.943  40.340  44.924  0.00  0.00    +0.000 A 
ATOM     13  C   UNL     1      16.080  40.341  47.194  0.00  0.00    +0.000 A 
ATOM     14  C   UNL     1      16.581  38.987  44.815  0.00  0.00    +0.000 A 
ATOM     15  C   UNL     1      15.801  38.977  47.099  0.00  0.00    +0.000 A 
ATOM     16  C   UNL     1      16.039  38.303  45.905  0.00  0.00    +0.000 A 
ENDBRANCH   9  12
ENDBRANCH   3   9
ENDBRANCH   1   8
BRANCH   2  17
ATOM     17  N   UNL     1      22.899  40.445  46.620  0.00  0.00    +0.000 N 
ATOM     18  C   UNL     1      23.080  41.784  46.956  0.00  0.00    +0.000 C 
ATOM     19  O   UNL     1      23.745  42.559  46.277  0.00  0.00    +0.000 OA
ATOM     20  H   UNL     1      22.323  39.871  47.175  0.00  0.00    +0.000 HD
BRANCH  18  21
ATOM     21  C   UNL     1      22.475  42.142  48.309  0.00  0.00    +0.000 C 
BRANCH  21  22
ATOM     22  C   UNL     1      23.260  41.600  49.524  0.00  0.00    +0.000 C 
ATOM     23  C   UNL     1      23.653  42.684  50.547  0.00  0.00    +0.000 C 
ATOM     24  C   UNL     1      24.532  40.854  49.074  0.00  0.00    +0.000 C 
ATOM     25  C   UNL     1      24.721  43.641  50.026  0.00  0.00    +0.000 C 
ATOM     26  C   UNL     1      25.628  41.789  48.557  0.00  0.00    +0.000 C 
ATOM     27  C   UNL     1      25.964  42.892  49.555  0.00  0.00    +0.000 C 
ENDBRANCH  21  22
ENDBRANCH  18  21
ENDBRANCH   2  17
BRANCH   2  28
ATOM     28  C   UNL     1      24.875  39.279  45.665  0.00  0.00    +0.000 C 
ATOM     29  O   UNL     1      25.940  39.873  45.680  0.00  0.00    +0.000 OA
ATOM     30  OXT UNL     1      24.774  37.931  45.732  0.00  0.00    +0.000 OA
ENDBRANCH   2  28
TORSDOF 7
ENDMDL
MODEL 5
REMARK VINA RESULT:      -6.6      2.718      7.511
REMARK  Name = 323592
REMARK  7 active torsions:
REMARK  status: ('A' for Active; 'I' for Inactive)
REMARK    1  A    between atoms: C_3  and  O_5
REMARK    2  A    between atoms: O_5  and  C_8
REMARK    3  A    between atoms: C_14  and  C_15
REMARK    4  A    between atoms: CA_16  and  N_17
REMARK    5  A    between atoms: CA_16  and  C_18
REMARK    6  A    between atoms: C_19  and  C_23
REMARK    7  A    between atoms: C_23  and  C_24
REMARK                            x       y       z     vdW  Elec       q    Type
REMARK                         _______ _______ _______ _____ _____    ______ ____
ROOT
ATOM      1  C   UNL     1      22.620  39.137  44.266  0.00  0.00    +0.000 C 
ATOM      2  CA  UNL     1      23.192  39.303  45.468  0.00  0.00    +0.000 C 
ENDROOT
BRANCH   1   8
ATOM      3  C   UNL     1      18.665  40.506  43.684  0.00  0.00    +0.000 A 
ATOM      4  C   UNL     1      18.904  39.132  43.731  0.00  0.00    +0.000 A 
ATOM      5  C   UNL     1      19.732  41.394  43.535  0.00  0.00    +0.000 A 
ATOM      6  C   UNL     1      20.219  38.656  43.804  0.00  0.00    +0.000 A 
ATOM      7  C   UNL     1      21.040  40.922  43.635  0.00  0.00    +0.000 A 
ATOM      8  C   UNL     1      21.285  39.557  43.826  0.00  0.00    +0.000 A 
BRANCH   3   9
ATOM      9  O   UNL     1      17.366  40.942  43.846  0.00  0.00    +0.000 OA
BRANCH   9  12
ATOM     10 BR   UNL     1      17.004  39.557  46.583  0.00  0.00    +0.000 Br
ATOM     11  C   UNL     1      16.889  41.402  46.151  0.00  0.00    +0.000 A 
ATOM     12  C   UNL     1      17.122  41.867  44.851  0.00  0.00    +0.000 A 
ATOM     13  C   UNL     1      16.563  42.299  47.175  0.00  0.00    +0.000 A 
ATOM     14  C   UNL     1      17.116  43.253  44.619  0.00  0.00    +0.000 A 
ATOM     15  C   UNL     1      16.480  43.667  46.910  0.00  0.00    +0.000 A 
ATOM     16  C   UNL     1      16.770  44.145  45.636  0.00  0.00    +0.000 A 
ENDBRANCH   9  12
ENDBRANCH   3   9
ENDBRANCH   1   8
BRANCH   2  17
ATOM     17  N   UNL     1      22.667  40.066  46.499  0.00  0.00    +0.000 N 
ATOM     18  C   UNL     1      23.006  41.413  46.606  0.00  0.00    +0.000 C 
ATOM     19  O   UNL     1      23.721  41.988  45.793  0.00  0.00    +0.000 OA
ATOM     20  H   UNL     1      22.055  39.658  47.154  0.00  0.00    +0.000 HD
BRANCH  18  21
ATOM     21  C   UNL     1      22.501  42.049  47.896  0.00  0.00    +0.000 C 
BRANCH  21  22
ATOM     22  C   UNL     1      23.187  41.526  49.177  0.00  0.00    +0.000 C 
ATOM     23  C   UNL     1      23.483  42.622  50.220  0.00  0.00    +0.000 C 
ATOM     24  C   UNL     1      24.499  40.789  48.843  0.00  0.00    +0.000 C 
ATOM     25  C   UNL     1      24.582  43.587  49.781  0.00  0.00    +0.000 C 
ATOM     26  C   UNL     1      25.626  41.730  48.410  0.00  0.00    +0.000 C 
ATOM     27  C   UNL     1      25.867  42.846  49.422  0.00  0.00    +0.000 C 
ENDBRANCH  21  22
ENDBRANCH  18  21
ENDBRANCH   2  17
BRANCH   2  28
ATOM     28  C   UNL     1      24.462  38.547  45.698  0.00  0.00    +0.000 C 
ATOM     29  O   UNL     1      24.537  37.347  45.905  0.00  0.00    +0.000 OA
ATOM     30  OXT UNL     1      25.535  39.373  45.711  0.00  0.00    +0.000 OA
ENDBRANCH   2  28
TORSDOF 7
ENDMDL
MODEL 6
REMARK VINA RESULT:      -6.5      2.266      3.529
REMARK  Name = 323592
REMARK  7 active torsions:
REMARK  status: ('A' for Active; 'I' for Inactive)
REMARK    1  A    between atoms: C_3  and  O_5
REMARK    2  A    between atoms: O_5  and  C_8
REMARK    3  A    between atoms: C_14  and  C_15
REMARK    4  A    between atoms: CA_16  and  N_17
REMARK    5  A    between atoms: CA_16  and  C_18
REMARK    6  A    between atoms: C_19  and  C_23
REMARK    7  A    between atoms: C_23  and  C_24
REMARK                            x       y       z     vdW  Elec       q    Type
REMARK                         _______ _______ _______ _____ _____    ______ ____
ROOT
ATOM      1  C   UNL     1      21.175  39.107  44.012  0.00  0.00    +0.000 C 
ATOM      2  CA  UNL     1      20.013  39.646  44.411  0.00  0.00    +0.000 C 
ENDROOT
BRANCH   1   8
ATOM      3  C   UNL     1      24.726  40.135  46.057  0.00  0.00    +0.000 A 
ATOM      4  C   UNL     1      24.296  40.943  45.003  0.00  0.00    +0.000 A 
ATOM      5  C   UNL     1      24.168  38.868  46.236  0.00  0.00    +0.000 A 
ATOM      6  C   UNL     1      23.189  40.557  44.237  0.00  0.00    +0.000 A 
ATOM      7  C   UNL     1      23.050  38.496  45.492  0.00  0.00    +0.000 A 
ATOM      8  C   UNL     1      22.523  39.365  44.527  0.00  0.00    +0.000 A 
BRANCH   3   9
ATOM      9  O   UNL     1      25.663  40.653  46.927  0.00  0.00    +0.000 OA
BRANCH   9  12
ATOM     10 BR   UNL     1      27.946  41.411  48.865  0.00  0.00    +0.000 Br
ATOM     11  C   UNL     1      26.101  41.842  48.963  0.00  0.00    +0.000 A 
ATOM     12  C   UNL     1      25.199  41.447  47.968  0.00  0.00    +0.000 A 
ATOM     13  C   UNL     1      25.654  42.576  50.070  0.00  0.00    +0.000 A 
ATOM     14  C   UNL     1      23.866  41.881  48.053  0.00  0.00    +0.000 A 
ATOM     15  C   UNL     1      24.309  42.930  50.181  0.00  0.00    +0.000 A 
ATOM     16  C   UNL     1      23.418  42.595  49.166  0.00  0.00    +0.000 A 
ENDBRANCH   9  12
ENDBRANCH   3   9
ENDBRANCH   1   8
BRANCH   2  17
ATOM     17  N   UNL     1      19.853  40.452  45.527  0.00  0.00    +0.000 N 
ATOM     18  C   UNL     1      20.109  41.819  45.438  0.00  0.00    +0.000 C 
ATOM     19  O   UNL     1      20.427  42.371  44.390  0.00  0.00    +0.000 OA
ATOM     20  H   UNL     1      19.560  40.060  46.381  0.00  0.00    +0.000 HD
BRANCH  18  21
ATOM     21  C   UNL     1      20.073  42.517  46.792  0.00  0.00    +0.000 C 
BRANCH  21  22
ATOM     22  C   UNL     1      18.867  42.134  47.677  0.00  0.00    +0.000 C 
ATOM     23  C   UNL     1      17.649  41.619  46.885  0.00  0.00    +0.000 C 
ATOM     24  C   UNL     1      18.424  43.322  48.555  0.00  0.00    +0.000 C 
ATOM     25  C   UNL     1      16.962  42.708  46.065  0.00  0.00    +0.000 C 
ATOM     26  C   UNL     1      17.720  44.427  47.763  0.00  0.00    +0.000 C 
ATOM     27  C   UNL     1      16.556  43.893  46.936  0.00  0.00    +0.000 C 
ENDBRANCH  21  22
ENDBRANCH  18  21
ENDBRANCH   2  17
BRANCH   2  28
ATOM     28  C   UNL     1      18.832  39.382  43.531  0.00  0.00    +0.000 C 
ATOM     29  O   UNL     1      18.294  40.209  42.813  0.00  0.00    +0.000 OA
ATOM     30  OXT UNL     1      18.383  38.113  43.670  0.00  0.00    +0.000 OA
ENDBRANCH   2  28
TORSDOF 7
ENDMDL
MODEL 7
REMARK VINA RESULT:      -6.5      2.970      6.784
REMARK  Name = 323592
REMARK  7 active torsions:
REMARK  status: ('A' for Active; 'I' for Inactive)
REMARK    1  A    between atoms: C_3  and  O_5
REMARK    2  A    between atoms: O_5  and  C_8
REMARK    3  A    between atoms: C_14  and  C_15
REMARK    4  A    between atoms: CA_16  and  N_17
REMARK    5  A    between atoms: CA_16  and  C_18
REMARK    6  A    between atoms: C_19  and  C_23
REMARK    7  A    between atoms: C_23  and  C_24
REMARK                            x       y       z     vdW  Elec       q    Type
REMARK                         _______ _______ _______ _____ _____    ______ ____
ROOT
ATOM      1  C   UNL     1      24.032  40.515  46.161  0.00  0.00    +0.000 C 
ATOM      2  CA  UNL     1      23.777  41.407  47.130  0.00  0.00    +0.000 C 
ENDROOT
BRANCH   1   8
ATOM      3  C   UNL     1      20.967  39.434  43.461  0.00  0.00    +0.000 A 
ATOM      4  C   UNL     1      21.612  38.432  44.187  0.00  0.00    +0.000 A 
ATOM      5  C   UNL     1      21.515  40.717  43.406  0.00  0.00    +0.000 A 
ATOM      6  C   UNL     1      22.707  38.754  44.997  0.00  0.00    +0.000 A 
ATOM      7  C   UNL     1      22.589  41.044  44.233  0.00  0.00    +0.000 A 
ATOM      8  C   UNL     1      23.152  40.075  45.073  0.00  0.00    +0.000 A 
BRANCH   3   9
ATOM      9  O   UNL     1      19.762  39.125  42.864  0.00  0.00    +0.000 OA
BRANCH   9  12
ATOM     10 BR   UNL     1      17.692  41.413  42.743  0.00  0.00    +0.000 Br
ATOM     11  C   UNL     1      17.669  39.834  43.795  0.00  0.00    +0.000 A 
ATOM     12  C   UNL     1      18.681  38.872  43.696  0.00  0.00    +0.000 A 
ATOM     13  C   UNL     1      16.602  39.650  44.684  0.00  0.00    +0.000 A 
ATOM     14  C   UNL     1      18.555  37.682  44.432  0.00  0.00    +0.000 A 
ATOM     15  C   UNL     1      16.534  38.498  45.469  0.00  0.00    +0.000 A 
ATOM     16  C   UNL     1      17.502  37.508  45.333  0.00  0.00    +0.000 A 
ENDBRANCH   9  12
ENDBRANCH   3   9
ENDBRANCH   1   8
BRANCH   2  17
ATOM     17  N   UNL     1      22.655  42.220  47.186  0.00  0.00    +0.000 N 
ATOM     18  C   UNL     1      21.394  41.650  47.344  0.00  0.00    +0.000 C 
ATOM     19  O   UNL     1      21.219  40.445  47.489  0.00  0.00    +0.000 OA
ATOM     20  H   UNL     1      22.749  43.197  47.114  0.00  0.00    +0.000 HD
BRANCH  18  21
ATOM     21  C   UNL     1      20.264  42.663  47.190  0.00  0.00    +0.000 C 
BRANCH  21  22
ATOM     22  C   UNL     1      19.012  42.358  48.042  0.00  0.00    +0.000 C 
ATOM     23  C   UNL     1      17.861  41.708  47.250  0.00  0.00    +0.000 C 
ATOM     24  C   UNL     1      18.487  43.634  48.730  0.00  0.00    +0.000 C 
ATOM     25  C   UNL     1      17.203  42.662  46.256  0.00  0.00    +0.000 C 
ATOM     26  C   UNL     1      17.810  44.606  47.761  0.00  0.00    +0.000 C 
ATOM     27  C   UNL     1      16.713  43.935  46.940  0.00  0.00    +0.000 C 
ENDBRANCH  21  22
ENDBRANCH  18  21
ENDBRANCH   2  17
BRANCH   2  28
ATOM     28  C   UNL     1      24.771  41.464  48.246  0.00  0.00    +0.000 C 
ATOM     29  O   UNL     1      25.981  41.390  48.112  0.00  0.00    +0.000 OA
ATOM     30  OXT UNL     1      24.160  41.550  49.451  0.00  0.00    +0.000 OA
ENDBRANCH   2  28
TORSDOF 7
ENDMDL
MODEL 8
REMARK VINA RESULT:      -6.4      2.279      3.601
REMARK  Name = 323592
REMARK  7 active torsions:
REMARK  status: ('A' for Active; 'I' for Inactive)
REMARK    1  A    between atoms: C_3  and  O_5
REMARK    2  A    between atoms: O_5  and  C_8
REMARK    3  A    between atoms: C_14  and  C_15
REMARK    4  A    between atoms: CA_16  and  N_17
REMARK    5  A    between atoms: CA_16  and  C_18
REMARK    6  A    between atoms: C_19  and  C_23
REMARK    7  A    between atoms: C_23  and  C_24
REMARK                            x       y       z     vdW  Elec       q    Type
REMARK                         _______ _______ _______ _____ _____    ______ ____
ROOT
ATOM      1  C   UNL     1      21.271  39.234  43.812  0.00  0.00    +0.000 C 
ATOM      2  CA  UNL     1      20.146  39.762  44.315  0.00  0.00    +0.000 C 
ENDROOT
BRANCH   1   8
ATOM      3  C   UNL     1      24.951  39.883  45.785  0.00  0.00    +0.000 A 
ATOM      4  C   UNL     1      24.413  40.907  45.006  0.00  0.00    +0.000 A 
ATOM      5  C   UNL     1      24.444  38.586  45.677  0.00  0.00    +0.000 A 
ATOM      6  C   UNL     1      23.257  40.674  44.250  0.00  0.00    +0.000 A 
ATOM      7  C   UNL     1      23.279  38.360  44.946  0.00  0.00    +0.000 A 
ATOM      8  C   UNL     1      22.650  39.417  44.276  0.00  0.00    +0.000 A 
BRANCH   3   9
ATOM      9  O   UNL     1      25.942  40.209  46.688  0.00  0.00    +0.000 OA
BRANCH   9  12
ATOM     10 BR   UNL     1      23.449  39.365  48.303  0.00  0.00    +0.000 Br
ATOM     11  C   UNL     1      24.500  40.937  48.461  0.00  0.00    +0.000 A 
ATOM     12  C   UNL     1      25.633  41.145  47.666  0.00  0.00    +0.000 A 
ATOM     13  C   UNL     1      24.113  41.897  49.404  0.00  0.00    +0.000 A 
ATOM     14  C   UNL     1      26.422  42.284  47.899  0.00  0.00    +0.000 A 
ATOM     15  C   UNL     1      24.862  43.063  49.567  0.00  0.00    +0.000 A 
ATOM     16  C   UNL     1      26.023  43.250  48.825  0.00  0.00    +0.000 A 
ENDBRANCH   9  12
ENDBRANCH   3   9
ENDBRANCH   1   8
BRANCH   2  17
ATOM     17  N   UNL     1      20.064  40.474  45.502  0.00  0.00    +0.000 N 
ATOM     18  C   UNL     1      20.206  41.860  45.490  0.00  0.00    +0.000 C 
ATOM     19  O   UNL     1      20.354  42.506  44.459  0.00  0.00    +0.000 OA
ATOM     20  H   UNL     1      19.905  40.001  46.351  0.00  0.00    +0.000 HD
BRANCH  18  21
ATOM     21  C   UNL     1      20.284  42.458  46.890  0.00  0.00    +0.000 C 
BRANCH  21  22
ATOM     22  C   UNL     1      19.098  42.090  47.809  0.00  0.00    +0.000 C 
ATOM     23  C   UNL     1      17.884  41.506  47.060  0.00  0.00    +0.000 C 
ATOM     24  C   UNL     1      18.636  43.309  48.632  0.00  0.00    +0.000 C 
ATOM     25  C   UNL     1      17.159  42.535  46.196  0.00  0.00    +0.000 C 
ATOM     26  C   UNL     1      17.895  44.355  47.796  0.00  0.00    +0.000 C 
ATOM     27  C   UNL     1      16.734  43.751  47.013  0.00  0.00    +0.000 C 
ENDBRANCH  21  22
ENDBRANCH  18  21
ENDBRANCH   2  17
BRANCH   2  28
ATOM     28  C   UNL     1      18.915  39.599  43.479  0.00  0.00    +0.000 C 
ATOM     29  O   UNL     1      18.420  40.471  42.783  0.00  0.00    +0.000 OA
ATOM     30  OXT UNL     1      18.370  38.370  43.633  0.00  0.00    +0.000 OA
ENDBRANCH   2  28
TORSDOF 7
ENDMDL
MODEL 9
REMARK VINA RESULT:      -5.9      3.012      6.643
REMARK  Name = 323592
REMARK  7 active torsions:
REMARK  status: ('A' for Active; 'I' for Inactive)
REMARK    1  A    between atoms: C_3  and  O_5
REMARK    2  A    between atoms: O_5  and  C_8
REMARK    3  A    between atoms: C_14  and  C_15
REMARK    4  A    between atoms: CA_16  and  N_17
REMARK    5  A    between atoms: CA_16  and  C_18
REMARK    6  A    between atoms: C_19  and  C_23
REMARK    7  A    between atoms: C_23  and  C_24
REMARK                            x       y       z     vdW  Elec       q    Type
REMARK                         _______ _______ _______ _____ _____    ______ ____
ROOT
ATOM      1  C   UNL     1      23.120  41.794  47.246  0.00  0.00    +0.000 C 
ATOM      2  CA  UNL     1      23.500  40.631  46.695  0.00  0.00    +0.000 C 
ENDROOT
BRANCH   1   8
ATOM      3  C   UNL     1      19.260  43.292  46.406  0.00  0.00    +0.000 A 
ATOM      4  C   UNL     1      20.317  43.642  45.567  0.00  0.00    +0.000 A 
ATOM      5  C   UNL     1      19.520  42.712  47.650  0.00  0.00    +0.000 A 
ATOM      6  C   UNL     1      21.623  43.254  45.892  0.00  0.00    +0.000 A 
ATOM      7  C   UNL     1      20.816  42.302  47.961  0.00  0.00    +0.000 A 
ATOM      8  C   UNL     1      21.862  42.523  47.057  0.00  0.00    +0.000 A 
BRANCH   3   9
ATOM      9  O   UNL     1      17.975  43.486  45.943  0.00  0.00    +0.000 OA
BRANCH   9  12
ATOM     10 BR   UNL     1      16.211  41.078  46.736  0.00  0.00    +0.000 Br
ATOM     11  C   UNL     1      16.811  41.605  45.015  0.00  0.00    +0.000 A 
ATOM     12  C   UNL     1      17.581  42.759  44.827  0.00  0.00    +0.000 A 
ATOM     13  C   UNL     1      16.462  40.803  43.921  0.00  0.00    +0.000 A 
ATOM     14  C   UNL     1      17.911  43.145  43.518  0.00  0.00    +0.000 A 
ATOM     15  C   UNL     1      16.867  41.157  42.633  0.00  0.00    +0.000 A 
ATOM     16  C   UNL     1      17.580  42.334  42.430  0.00  0.00    +0.000 A 
ENDBRANCH   9  12
ENDBRANCH   3   9
ENDBRANCH   1   8
BRANCH   2  17
ATOM     17  N   UNL     1      22.681  39.802  45.946  0.00  0.00    +0.000 N 
ATOM     18  C   UNL     1      22.718  39.864  44.555  0.00  0.00    +0.000 C 
ATOM     19  O   UNL     1      23.488  40.593  43.940  0.00  0.00    +0.000 OA
ATOM     20  H   UNL     1      22.074  39.170  46.395  0.00  0.00    +0.000 HD
BRANCH  18  21
ATOM     21  C   UNL     1      21.623  39.032  43.896  0.00  0.00    +0.000 C 
BRANCH  21  22
ATOM     22  C   UNL     1      20.279  39.771  43.716  0.00  0.00    +0.000 C 
ATOM     23  C   UNL     1      19.727  40.390  45.015  0.00  0.00    +0.000 C 
ATOM     24  C   UNL     1      19.210  38.838  43.114  0.00  0.00    +0.000 C 
ATOM     25  C   UNL     1      19.250  39.346  46.021  0.00  0.00    +0.000 C 
ATOM     26  C   UNL     1      18.702  37.786  44.103  0.00  0.00    +0.000 C 
ATOM     27  C   UNL     1      18.215  38.408  45.408  0.00  0.00    +0.000 C 
ENDBRANCH  21  22
ENDBRANCH  18  21
ENDBRANCH   2  17
BRANCH   2  28
ATOM     28  C   UNL     1      24.938  40.260  46.877  0.00  0.00    +0.000 C 
ATOM     29  O   UNL     1      25.793  40.983  47.361  0.00  0.00    +0.000 OA
ATOM     30  OXT UNL     1      25.199  39.029  46.379  0.00  0.00    +0.000 OA
ENDBRANCH   2  28
TORSDOF 7
ENDMDL
