MODEL 1
REMARK VINA RESULT:      -8.2      0.000      0.000
REMARK  Name = 323637
REMARK  8 active torsions:
REMARK  status: ('A' for Active; 'I' for Inactive)
REMARK    1  A    between atoms: C_3  and  O_5
REMARK    2  A    between atoms: O_5  and  C_8
REMARK    3  A    between atoms: C_14  and  C_15
REMARK    4  A    between atoms: CA_16  and  N_17
REMARK    5  A    between atoms: CA_16  and  C_18
REMARK    6  A    between atoms: C_19  and  C_23
REMARK    7  A    between atoms: C_23  and  C_24
REMARK    8  A    between atoms: C_24  and  C_25
REMARK                            x       y       z     vdW  Elec       q    Type
REMARK                         _______ _______ _______ _____ _____    ______ ____
ROOT
ATOM      1  C   UNL     1      19.415  42.021  43.526  0.00  0.00    +0.000 C 
ATOM      2  CA  UNL     1      18.137  41.602  43.502  0.00  0.00    +0.000 C 
ENDROOT
BRANCH   1   8
ATOM      3  C   UNL     1      21.887  41.499  46.914  0.00  0.00    +0.000 A 
ATOM      4  C   UNL     1      21.493  42.794  46.569  0.00  0.00    +0.000 A 
ATOM      5  C   UNL     1      21.738  40.460  45.997  0.00  0.00    +0.000 A 
ATOM      6  C   UNL     1      20.726  42.992  45.414  0.00  0.00    +0.000 A 
ATOM      7  C   UNL     1      20.979  40.657  44.849  0.00  0.00    +0.000 A 
ATOM      8  C   UNL     1      20.418  41.908  44.585  0.00  0.00    +0.000 A 
BRANCH   3   9
ATOM      9  O   UNL     1      22.424  41.135  48.116  0.00  0.00    +0.000 OA
BRANCH   9  12
ATOM     10  I   UNL     1      25.524  40.627  46.258  0.00  0.00    +0.000 I 
ATOM     11  C   UNL     1      24.929  41.486  48.097  0.00  0.00    +0.000 A 
ATOM     12  C   UNL     1      23.618  41.643  48.574  0.00  0.00    +0.000 A 
ATOM     13  C   UNL     1      25.999  42.083  48.791  0.00  0.00    +0.000 A 
ATOM     14  C   UNL     1      23.404  42.543  49.639  0.00  0.00    +0.000 A 
ATOM     15  C   UNL     1      25.766  42.941  49.862  0.00  0.00    +0.000 A 
ATOM     16  C   UNL     1      24.465  43.204  50.259  0.00  0.00    +0.000 A 
ENDBRANCH   9  12
ENDBRANCH   3   9
ENDBRANCH   1   8
BRANCH   2  17
ATOM     17  N   UNL     1      17.423  41.020  44.539  0.00  0.00    +0.000 N 
ATOM     18  C   UNL     1      16.907  41.691  45.637  0.00  0.00    +0.000 C 
ATOM     19  O   UNL     1      16.912  42.900  45.796  0.00  0.00    +0.000 OA
ATOM     20  H   UNL     1      17.270  40.049  44.492  0.00  0.00    +0.000 HD
BRANCH  18  21
ATOM     21  C   UNL     1      16.194  40.800  46.634  0.00  0.00    +0.000 C 
BRANCH  21  22
ATOM     22  C   UNL     1      17.242  39.887  47.276  0.00  0.00    +0.000 C 
BRANCH  22  23
ATOM     23  C   UNL     1      17.286  38.496  46.663  0.00  0.00    +0.000 C 
ATOM     24  C   UNL     1      18.180  38.428  45.425  0.00  0.00    +0.000 C 
ATOM     25  C   UNL     1      15.948  38.015  46.107  0.00  0.00    +0.000 C 
ATOM     26  C   UNL     1      17.744  37.150  44.713  0.00  0.00    +0.000 C 
ATOM     27  C   UNL     1      16.344  36.827  45.241  0.00  0.00    +0.000 C 
ENDBRANCH  22  23
ENDBRANCH  21  22
ENDBRANCH  18  21
ENDBRANCH   2  17
BRANCH   2  28
ATOM     28  C   UNL     1      17.463  41.760  42.164  0.00  0.00    +0.000 C 
ATOM     29  O   UNL     1      17.835  42.500  41.267  0.00  0.00    +0.000 OA
ATOM     30  OXT UNL     1      16.358  40.982  42.054  0.00  0.00    +0.000 OA
ENDBRANCH   2  28
TORSDOF 8
ENDMDL
MODEL 2
REMARK VINA RESULT:      -8.2      3.047      7.413
REMARK  Name = 323637
REMARK  8 active torsions:
REMARK  status: ('A' for Active; 'I' for Inactive)
REMARK    1  A    between atoms: C_3  and  O_5
REMARK    2  A    between atoms: O_5  and  C_8
REMARK    3  A    between atoms: C_14  and  C_15
REMARK    4  A    between atoms: CA_16  and  N_17
REMARK    5  A    between atoms: CA_16  and  C_18
REMARK    6  A    between atoms: C_19  and  C_23
REMARK    7  A    between atoms: C_23  and  C_24
REMARK    8  A    between atoms: C_24  and  C_25
REMARK                            x       y       z     vdW  Elec       q    Type
REMARK                         _______ _______ _______ _____ _____    ______ ____
ROOT
ATOM      1  C   UNL     1      22.658  42.269  48.428  0.00  0.00    +0.000 C 
ATOM      2  CA  UNL     1      23.724  41.672  47.865  0.00  0.00    +0.000 C 
ENDROOT
BRANCH   1   8
ATOM      3  C   UNL     1      18.628  42.202  47.153  0.00  0.00    +0.000 A 
ATOM      4  C   UNL     1      18.947  42.899  48.321  0.00  0.00    +0.000 A 
ATOM      5  C   UNL     1      19.544  41.302  46.610  0.00  0.00    +0.000 A 
ATOM      6  C   UNL     1      20.266  42.879  48.793  0.00  0.00    +0.000 A 
ATOM      7  C   UNL     1      20.852  41.280  47.080  0.00  0.00    +0.000 A 
ATOM      8  C   UNL     1      21.233  42.115  48.132  0.00  0.00    +0.000 A 
BRANCH   3   9
ATOM      9  O   UNL     1      17.459  42.325  46.459  0.00  0.00    +0.000 OA
BRANCH   9  12
ATOM     10  I   UNL     1      16.314  38.864  46.627  0.00  0.00    +0.000 I 
ATOM     11  C   UNL     1      16.865  40.255  45.132  0.00  0.00    +0.000 A 
ATOM     12  C   UNL     1      17.202  41.605  45.314  0.00  0.00    +0.000 A 
ATOM     13  C   UNL     1      16.701  39.748  43.829  0.00  0.00    +0.000 A 
ATOM     14  C   UNL     1      17.193  42.449  44.184  0.00  0.00    +0.000 A 
ATOM     15  C   UNL     1      16.731  40.594  42.724  0.00  0.00    +0.000 A 
ATOM     16  C   UNL     1      16.935  41.951  42.906  0.00  0.00    +0.000 A 
ENDBRANCH   9  12
ENDBRANCH   3   9
ENDBRANCH   1   8
BRANCH   2  17
ATOM     17  N   UNL     1      23.728  40.805  46.783  0.00  0.00    +0.000 N 
ATOM     18  C   UNL     1      23.650  39.422  46.859  0.00  0.00    +0.000 C 
ATOM     19  O   UNL     1      23.458  38.778  47.875  0.00  0.00    +0.000 OA
ATOM     20  H   UNL     1      23.792  41.204  45.885  0.00  0.00    +0.000 HD
BRANCH  18  21
ATOM     21  C   UNL     1      23.706  38.720  45.518  0.00  0.00    +0.000 C 
BRANCH  21  22
ATOM     22  C   UNL     1      23.790  39.795  44.431  0.00  0.00    +0.000 C 
BRANCH  22  23
ATOM     23  C   UNL     1      22.514  39.926  43.613  0.00  0.00    +0.000 C 
ATOM     24  C   UNL     1      21.889  41.317  43.720  0.00  0.00    +0.000 C 
ATOM     25  C   UNL     1      21.372  39.034  44.089  0.00  0.00    +0.000 C 
ATOM     26  C   UNL     1      20.450  41.122  43.247  0.00  0.00    +0.000 C 
ATOM     27  C   UNL     1      20.158  39.626  43.385  0.00  0.00    +0.000 C 
ENDBRANCH  22  23
ENDBRANCH  21  22
ENDBRANCH  18  21
ENDBRANCH   2  17
BRANCH   2  28
ATOM     28  C   UNL     1      25.031  41.973  48.552  0.00  0.00    +0.000 C 
ATOM     29  O   UNL     1      26.121  41.535  48.219  0.00  0.00    +0.000 OA
ATOM     30  OXT UNL     1      24.871  42.794  49.617  0.00  0.00    +0.000 OA
ENDBRANCH   2  28
TORSDOF 8
ENDMDL
MODEL 3
REMARK VINA RESULT:      -8.0      1.209      2.436
REMARK  Name = 323637
REMARK  8 active torsions:
REMARK  status: ('A' for Active; 'I' for Inactive)
REMARK    1  A    between atoms: C_3  and  O_5
REMARK    2  A    between atoms: O_5  and  C_8
REMARK    3  A    between atoms: C_14  and  C_15
REMARK    4  A    between atoms: CA_16  and  N_17
REMARK    5  A    between atoms: CA_16  and  C_18
REMARK    6  A    between atoms: C_19  and  C_23
REMARK    7  A    between atoms: C_23  and  C_24
REMARK    8  A    between atoms: C_24  and  C_25
REMARK                            x       y       z     vdW  Elec       q    Type
REMARK                         _______ _______ _______ _____ _____    ______ ____
ROOT
ATOM      1  C   UNL     1      19.327  41.713  43.501  0.00  0.00    +0.000 C 
ATOM      2  CA  UNL     1      18.044  41.312  43.506  0.00  0.00    +0.000 C 
ENDROOT
BRANCH   1   8
ATOM      3  C   UNL     1      21.838  41.340  46.881  0.00  0.00    +0.000 A 
ATOM      4  C   UNL     1      21.671  42.604  46.310  0.00  0.00    +0.000 A 
ATOM      5  C   UNL     1      21.451  40.203  46.175  0.00  0.00    +0.000 A 
ATOM      6  C   UNL     1      20.893  42.736  45.152  0.00  0.00    +0.000 A 
ATOM      7  C   UNL     1      20.682  40.333  45.024  0.00  0.00    +0.000 A 
ATOM      8  C   UNL     1      20.348  41.601  44.544  0.00  0.00    +0.000 A 
BRANCH   3   9
ATOM      9  O   UNL     1      22.362  41.100  48.119  0.00  0.00    +0.000 OA
BRANCH   9  12
ATOM     10  I   UNL     1      25.401  40.568  46.171  0.00  0.00    +0.000 I 
ATOM     11  C   UNL     1      24.862  41.467  48.008  0.00  0.00    +0.000 A 
ATOM     12  C   UNL     1      23.567  41.627  48.525  0.00  0.00    +0.000 A 
ATOM     13  C   UNL     1      25.950  42.087  48.651  0.00  0.00    +0.000 A 
ATOM     14  C   UNL     1      23.382  42.551  49.574  0.00  0.00    +0.000 A 
ATOM     15  C   UNL     1      25.746  42.970  49.709  0.00  0.00    +0.000 A 
ATOM     16  C   UNL     1      24.458  43.233  50.142  0.00  0.00    +0.000 A 
ENDBRANCH   9  12
ENDBRANCH   3   9
ENDBRANCH   1   8
BRANCH   2  17
ATOM     17  N   UNL     1      17.341  40.754  44.563  0.00  0.00    +0.000 N 
ATOM     18  C   UNL     1      17.249  39.400  44.844  0.00  0.00    +0.000 C 
ATOM     19  O   UNL     1      17.858  38.514  44.270  0.00  0.00    +0.000 OA
ATOM     20  H   UNL     1      16.866  41.373  45.165  0.00  0.00    +0.000 HD
BRANCH  18  21
ATOM     21  C   UNL     1      16.388  39.069  46.046  0.00  0.00    +0.000 C 
BRANCH  21  22
ATOM     22  C   UNL     1      16.989  39.782  47.260  0.00  0.00    +0.000 C 
BRANCH  22  23
ATOM     23  C   UNL     1      17.553  41.156  46.935  0.00  0.00    +0.000 C 
ATOM     24  C   UNL     1      18.517  41.664  48.006  0.00  0.00    +0.000 C 
ATOM     25  C   UNL     1      16.509  42.269  46.904  0.00  0.00    +0.000 C 
ATOM     26  C   UNL     1      18.602  43.167  47.757  0.00  0.00    +0.000 C 
ATOM     27  C   UNL     1      17.356  43.534  46.949  0.00  0.00    +0.000 C 
ENDBRANCH  22  23
ENDBRANCH  21  22
ENDBRANCH  18  21
ENDBRANCH   2  17
BRANCH   2  28
ATOM     28  C   UNL     1      17.348  41.460  42.177  0.00  0.00    +0.000 C 
ATOM     29  O   UNL     1      17.731  42.160  41.253  0.00  0.00    +0.000 OA
ATOM     30  OXT UNL     1      16.212  40.725  42.111  0.00  0.00    +0.000 OA
ENDBRANCH   2  28
TORSDOF 8
ENDMDL
MODEL 4
REMARK VINA RESULT:      -7.8      3.306      7.087
REMARK  Name = 323637
REMARK  8 active torsions:
REMARK  status: ('A' for Active; 'I' for Inactive)
REMARK    1  A    between atoms: C_3  and  O_5
REMARK    2  A    between atoms: O_5  and  C_8
REMARK    3  A    between atoms: C_14  and  C_15
REMARK    4  A    between atoms: CA_16  and  N_17
REMARK    5  A    between atoms: CA_16  and  C_18
REMARK    6  A    between atoms: C_19  and  C_23
REMARK    7  A    between atoms: C_23  and  C_24
REMARK    8  A    between atoms: C_24  and  C_25
REMARK                            x       y       z     vdW  Elec       q    Type
REMARK                         _______ _______ _______ _____ _____    ______ ____
ROOT
ATOM      1  C   UNL     1      25.331  40.595  46.941  0.00  0.00    +0.000 C 
ATOM      2  CA  UNL     1      25.054  41.546  47.851  0.00  0.00    +0.000 C 
ENDROOT
BRANCH   1   8
ATOM      3  C   UNL     1      22.481  39.265  44.117  0.00  0.00    +0.000 A 
ATOM      4  C   UNL     1      23.020  38.335  45.010  0.00  0.00    +0.000 A 
ATOM      5  C   UNL     1      23.093  40.507  43.954  0.00  0.00    +0.000 A 
ATOM      6  C   UNL     1      24.012  38.745  45.910  0.00  0.00    +0.000 A 
ATOM      7  C   UNL     1      24.080  40.912  44.846  0.00  0.00    +0.000 A 
ATOM      8  C   UNL     1      24.498  40.056  45.866  0.00  0.00    +0.000 A 
BRANCH   3   9
ATOM      9  O   UNL     1      21.363  39.070  43.359  0.00  0.00    +0.000 OA
BRANCH   9  12
ATOM     10  I   UNL     1      18.020  38.018  44.376  0.00  0.00    +0.000 I 
ATOM     11  C   UNL     1      18.940  39.756  43.600  0.00  0.00    +0.000 A 
ATOM     12  C   UNL     1      20.308  39.955  43.359  0.00  0.00    +0.000 A 
ATOM     13  C   UNL     1      18.048  40.839  43.485  0.00  0.00    +0.000 A 
ATOM     14  C   UNL     1      20.764  41.278  43.180  0.00  0.00    +0.000 A 
ATOM     15  C   UNL     1      18.518  42.133  43.273  0.00  0.00    +0.000 A 
ATOM     16  C   UNL     1      19.880  42.357  43.163  0.00  0.00    +0.000 A 
ENDBRANCH   9  12
ENDBRANCH   3   9
ENDBRANCH   1   8
BRANCH   2  17
ATOM     17  N   UNL     1      23.846  42.201  48.041  0.00  0.00    +0.000 N 
ATOM     18  C   UNL     1      22.599  41.597  48.075  0.00  0.00    +0.000 C 
ATOM     19  O   UNL     1      22.392  40.396  48.051  0.00  0.00    +0.000 OA
ATOM     20  H   UNL     1      23.877  43.178  48.162  0.00  0.00    +0.000 HD
BRANCH  18  21
ATOM     21  C   UNL     1      21.445  42.559  48.269  0.00  0.00    +0.000 C 
BRANCH  21  22
ATOM     22  C   UNL     1      20.578  42.509  47.008  0.00  0.00    +0.000 C 
BRANCH  22  23
ATOM     23  C   UNL     1      19.086  42.475  47.303  0.00  0.00    +0.000 C 
ATOM     24  C   UNL     1      18.456  41.119  46.988  0.00  0.00    +0.000 C 
ATOM     25  C   UNL     1      18.255  43.413  46.433  0.00  0.00    +0.000 C 
ATOM     26  C   UNL     1      16.960  41.408  46.899  0.00  0.00    +0.000 C 
ATOM     27  C   UNL     1      16.834  42.913  46.650  0.00  0.00    +0.000 C 
ENDBRANCH  22  23
ENDBRANCH  21  22
ENDBRANCH  18  21
ENDBRANCH   2  17
BRANCH   2  28
ATOM     28  C   UNL     1      26.231  41.945  48.703  0.00  0.00    +0.000 C 
ATOM     29  O   UNL     1      27.329  41.411  48.686  0.00  0.00    +0.000 OA
ATOM     30  OXT UNL     1      25.939  42.981  49.525  0.00  0.00    +0.000 OA
ENDBRANCH   2  28
TORSDOF 8
ENDMDL
MODEL 5
REMARK VINA RESULT:      -7.2      2.987      7.145
REMARK  Name = 323637
REMARK  8 active torsions:
REMARK  status: ('A' for Active; 'I' for Inactive)
REMARK    1  A    between atoms: C_3  and  O_5
REMARK    2  A    between atoms: O_5  and  C_8
REMARK    3  A    between atoms: C_14  and  C_15
REMARK    4  A    between atoms: CA_16  and  N_17
REMARK    5  A    between atoms: CA_16  and  C_18
REMARK    6  A    between atoms: C_19  and  C_23
REMARK    7  A    between atoms: C_23  and  C_24
REMARK    8  A    between atoms: C_24  and  C_25
REMARK                            x       y       z     vdW  Elec       q    Type
REMARK                         _______ _______ _______ _____ _____    ______ ____
ROOT
ATOM      1  C   UNL     1      24.359  40.526  46.032  0.00  0.00    +0.000 C 
ATOM      2  CA  UNL     1      24.239  41.375  47.067  0.00  0.00    +0.000 C 
ENDROOT
BRANCH   1   8
ATOM      3  C   UNL     1      21.139  39.466  43.507  0.00  0.00    +0.000 A 
ATOM      4  C   UNL     1      22.011  38.461  43.934  0.00  0.00    +0.000 A 
ATOM      5  C   UNL     1      21.501  40.804  43.645  0.00  0.00    +0.000 A 
ATOM      6  C   UNL     1      23.120  38.804  44.719  0.00  0.00    +0.000 A 
ATOM      7  C   UNL     1      22.603  41.145  44.422  0.00  0.00    +0.000 A 
ATOM      8  C   UNL     1      23.380  40.146  45.013  0.00  0.00    +0.000 A 
BRANCH   3   9
ATOM      9  O   UNL     1      19.911  39.255  42.948  0.00  0.00    +0.000 OA
BRANCH   9  12
ATOM     10  I   UNL     1      17.332  41.835  42.993  0.00  0.00    +0.000 I 
ATOM     11  C   UNL     1      17.714  39.995  43.960  0.00  0.00    +0.000 A 
ATOM     12  C   UNL     1      18.771  39.107  43.705  0.00  0.00    +0.000 A 
ATOM     13  C   UNL     1      16.674  39.608  44.827  0.00  0.00    +0.000 A 
ATOM     14  C   UNL     1      18.662  37.788  44.193  0.00  0.00    +0.000 A 
ATOM     15  C   UNL     1      16.605  38.309  45.325  0.00  0.00    +0.000 A 
ATOM     16  C   UNL     1      17.577  37.388  44.973  0.00  0.00    +0.000 A 
ENDBRANCH   9  12
ENDBRANCH   3   9
ENDBRANCH   1   8
BRANCH   2  17
ATOM     17  N   UNL     1      23.097  42.048  47.475  0.00  0.00    +0.000 N 
ATOM     18  C   UNL     1      21.853  41.472  47.682  0.00  0.00    +0.000 C 
ATOM     19  O   UNL     1      21.609  40.278  47.640  0.00  0.00    +0.000 OA
ATOM     20  H   UNL     1      23.176  43.018  47.631  0.00  0.00    +0.000 HD
BRANCH  18  21
ATOM     21  C   UNL     1      20.774  42.450  48.097  0.00  0.00    +0.000 C 
BRANCH  21  22
ATOM     22  C   UNL     1      20.343  43.228  46.851  0.00  0.00    +0.000 C 
BRANCH  22  23
ATOM     23  C   UNL     1      18.876  43.038  46.499  0.00  0.00    +0.000 C 
ATOM     24  C   UNL     1      17.988  44.143  47.071  0.00  0.00    +0.000 C 
ATOM     25  C   UNL     1      18.245  41.788  47.104  0.00  0.00    +0.000 C 
ATOM     26  C   UNL     1      16.579  43.558  47.023  0.00  0.00    +0.000 C 
ATOM     27  C   UNL     1      16.753  42.041  46.933  0.00  0.00    +0.000 C 
ENDBRANCH  22  23
ENDBRANCH  21  22
ENDBRANCH  18  21
ENDBRANCH   2  17
BRANCH   2  28
ATOM     28  C   UNL     1      25.527  41.629  47.808  0.00  0.00    +0.000 C 
ATOM     29  O   UNL     1      26.611  41.141  47.528  0.00  0.00    +0.000 OA
ATOM     30  OXT UNL     1      25.356  42.469  48.857  0.00  0.00    +0.000 OA
ENDBRANCH   2  28
TORSDOF 8
ENDMDL
MODEL 6
REMARK VINA RESULT:      -6.9      3.025      7.690
REMARK  Name = 323637
REMARK  8 active torsions:
REMARK  status: ('A' for Active; 'I' for Inactive)
REMARK    1  A    between atoms: C_3  and  O_5
REMARK    2  A    between atoms: O_5  and  C_8
REMARK    3  A    between atoms: C_14  and  C_15
REMARK    4  A    between atoms: CA_16  and  N_17
REMARK    5  A    between atoms: CA_16  and  C_18
REMARK    6  A    between atoms: C_19  and  C_23
REMARK    7  A    between atoms: C_23  and  C_24
REMARK    8  A    between atoms: C_24  and  C_25
REMARK                            x       y       z     vdW  Elec       q    Type
REMARK                         _______ _______ _______ _____ _____    ______ ____
ROOT
ATOM      1  C   UNL     1      22.600  42.496  48.701  0.00  0.00    +0.000 C 
ATOM      2  CA  UNL     1      23.783  41.857  48.676  0.00  0.00    +0.000 C 
ENDROOT
BRANCH   1   8
ATOM      3  C   UNL     1      18.828  41.586  47.024  0.00  0.00    +0.000 A 
ATOM      4  C   UNL     1      19.868  40.667  46.865  0.00  0.00    +0.000 A 
ATOM      5  C   UNL     1      19.108  42.887  47.438  0.00  0.00    +0.000 A 
ATOM      6  C   UNL     1      21.141  40.980  47.359  0.00  0.00    +0.000 A 
ATOM      7  C   UNL     1      20.372  43.199  47.926  0.00  0.00    +0.000 A 
ATOM      8  C   UNL     1      21.375  42.228  47.946  0.00  0.00    +0.000 A 
BRANCH   3   9
ATOM      9  O   UNL     1      17.506  41.322  46.809  0.00  0.00    +0.000 OA
BRANCH   9  12
ATOM     10  I   UNL     1      17.709  40.881  43.193  0.00  0.00    +0.000 I 
ATOM     11  C   UNL     1      16.955  39.813  44.854  0.00  0.00    +0.000 A 
ATOM     12  C   UNL     1      17.074  40.160  46.210  0.00  0.00    +0.000 A 
ATOM     13  C   UNL     1      16.429  38.556  44.502  0.00  0.00    +0.000 A 
ATOM     14  C   UNL     1      16.824  39.162  47.174  0.00  0.00    +0.000 A 
ATOM     15  C   UNL     1      16.156  37.597  45.474  0.00  0.00    +0.000 A 
ATOM     16  C   UNL     1      16.393  37.886  46.807  0.00  0.00    +0.000 A 
ENDBRANCH   9  12
ENDBRANCH   3   9
ENDBRANCH   1   8
BRANCH   2  17
ATOM     17  N   UNL     1      24.159  40.813  47.844  0.00  0.00    +0.000 N 
ATOM     18  C   UNL     1      25.079  40.899  46.810  0.00  0.00    +0.000 C 
ATOM     19  O   UNL     1      25.768  41.872  46.553  0.00  0.00    +0.000 OA
ATOM     20  H   UNL     1      23.737  39.937  48.001  0.00  0.00    +0.000 HD
BRANCH  18  21
ATOM     21  C   UNL     1      25.277  39.608  46.043  0.00  0.00    +0.000 C 
BRANCH  21  22
ATOM     22  C   UNL     1      23.902  38.959  45.859  0.00  0.00    +0.000 C 
BRANCH  22  23
ATOM     23  C   UNL     1      23.203  39.382  44.576  0.00  0.00    +0.000 C 
ATOM     24  C   UNL     1      22.822  40.862  44.576  0.00  0.00    +0.000 C 
ATOM     25  C   UNL     1      21.850  38.713  44.352  0.00  0.00    +0.000 C 
ATOM     26  C   UNL     1      21.768  40.981  43.478  0.00  0.00    +0.000 C 
ATOM     27  C   UNL     1      21.222  39.569  43.261  0.00  0.00    +0.000 C 
ENDBRANCH  22  23
ENDBRANCH  21  22
ENDBRANCH  18  21
ENDBRANCH   2  17
BRANCH   2  28
ATOM     28  C   UNL     1      24.760  42.332  49.721  0.00  0.00    +0.000 C 
ATOM     29  O   UNL     1      25.951  42.530  49.537  0.00  0.00    +0.000 OA
ATOM     30  OXT UNL     1      24.171  42.512  50.927  0.00  0.00    +0.000 OA
ENDBRANCH   2  28
TORSDOF 8
ENDMDL
MODEL 7
REMARK VINA RESULT:      -6.8      2.786      7.869
REMARK  Name = 323637
REMARK  8 active torsions:
REMARK  status: ('A' for Active; 'I' for Inactive)
REMARK    1  A    between atoms: C_3  and  O_5
REMARK    2  A    between atoms: O_5  and  C_8
REMARK    3  A    between atoms: C_14  and  C_15
REMARK    4  A    between atoms: CA_16  and  N_17
REMARK    5  A    between atoms: CA_16  and  C_18
REMARK    6  A    between atoms: C_19  and  C_23
REMARK    7  A    between atoms: C_23  and  C_24
REMARK    8  A    between atoms: C_24  and  C_25
REMARK                            x       y       z     vdW  Elec       q    Type
REMARK                         _______ _______ _______ _____ _____    ______ ____
ROOT
ATOM      1  C   UNL     1      23.177  40.336  43.955  0.00  0.00    +0.000 C 
ATOM      2  CA  UNL     1      23.771  40.503  45.150  0.00  0.00    +0.000 C 
ENDROOT
BRANCH   1   8
ATOM      3  C   UNL     1      18.972  40.250  43.536  0.00  0.00    +0.000 A 
ATOM      4  C   UNL     1      19.676  39.047  43.441  0.00  0.00    +0.000 A 
ATOM      5  C   UNL     1      19.653  41.462  43.451  0.00  0.00    +0.000 A 
ATOM      6  C   UNL     1      21.076  39.065  43.514  0.00  0.00    +0.000 A 
ATOM      7  C   UNL     1      21.042  41.480  43.520  0.00  0.00    +0.000 A 
ATOM      8  C   UNL     1      21.754  40.283  43.616  0.00  0.00    +0.000 A 
BRANCH   3   9
ATOM      9  O   UNL     1      17.623  40.358  43.716  0.00  0.00    +0.000 OA
BRANCH   9  12
ATOM     10  I   UNL     1      16.972  42.952  46.198  0.00  0.00    +0.000 I 
ATOM     11  C   UNL     1      16.763  40.854  46.043  0.00  0.00    +0.000 A 
ATOM     12  C   UNL     1      17.012  40.058  44.913  0.00  0.00    +0.000 A 
ATOM     13  C   UNL     1      16.157  40.282  47.177  0.00  0.00    +0.000 A 
ATOM     14  C   UNL     1      16.484  38.751  44.894  0.00  0.00    +0.000 A 
ATOM     15  C   UNL     1      15.673  38.976  47.147  0.00  0.00    +0.000 A 
ATOM     16  C   UNL     1      15.800  38.225  45.991  0.00  0.00    +0.000 A 
ENDBRANCH   9  12
ENDBRANCH   3   9
ENDBRANCH   1   8
BRANCH   2  17
ATOM     17  N   UNL     1      23.158  40.585  46.391  0.00  0.00    +0.000 N 
ATOM     18  C   UNL     1      22.445  41.676  46.865  0.00  0.00    +0.000 C 
ATOM     19  O   UNL     1      22.163  42.673  46.223  0.00  0.00    +0.000 OA
ATOM     20  H   UNL     1      23.235  39.804  46.985  0.00  0.00    +0.000 HD
BRANCH  18  21
ATOM     21  C   UNL     1      21.906  41.504  48.271  0.00  0.00    +0.000 C 
BRANCH  21  22
ATOM     22  C   UNL     1      22.561  42.569  49.155  0.00  0.00    +0.000 C 
BRANCH  22  23
ATOM     23  C   UNL     1      23.976  42.211  49.581  0.00  0.00    +0.000 C 
ATOM     24  C   UNL     1      24.527  43.162  50.644  0.00  0.00    +0.000 C 
ATOM     25  C   UNL     1      25.016  42.348  48.473  0.00  0.00    +0.000 C 
ATOM     26  C   UNL     1      26.037  42.947  50.597  0.00  0.00    +0.000 C 
ATOM     27  C   UNL     1      26.334  42.318  49.234  0.00  0.00    +0.000 C 
ENDBRANCH  22  23
ENDBRANCH  21  22
ENDBRANCH  18  21
ENDBRANCH   2  17
BRANCH   2  28
ATOM     28  C   UNL     1      25.268  40.662  45.075  0.00  0.00    +0.000 C 
ATOM     29  O   UNL     1      26.056  40.360  45.957  0.00  0.00    +0.000 OA
ATOM     30  OXT UNL     1      25.666  41.203  43.898  0.00  0.00    +0.000 OA
ENDBRANCH   2  28
TORSDOF 8
ENDMDL
MODEL 8
REMARK VINA RESULT:      -6.7      2.127      3.230
REMARK  Name = 323637
REMARK  8 active torsions:
REMARK  status: ('A' for Active; 'I' for Inactive)
REMARK    1  A    between atoms: C_3  and  O_5
REMARK    2  A    between atoms: O_5  and  C_8
REMARK    3  A    between atoms: C_14  and  C_15
REMARK    4  A    between atoms: CA_16  and  N_17
REMARK    5  A    between atoms: CA_16  and  C_18
REMARK    6  A    between atoms: C_19  and  C_23
REMARK    7  A    between atoms: C_23  and  C_24
REMARK    8  A    between atoms: C_24  and  C_25
REMARK                            x       y       z     vdW  Elec       q    Type
REMARK                         _______ _______ _______ _____ _____    ______ ____
ROOT
ATOM      1  C   UNL     1      21.186  39.257  43.843  0.00  0.00    +0.000 C 
ATOM      2  CA  UNL     1      20.025  39.838  44.191  0.00  0.00    +0.000 C 
ENDROOT
BRANCH   1   8
ATOM      3  C   UNL     1      24.831  40.116  45.802  0.00  0.00    +0.000 A 
ATOM      4  C   UNL     1      24.432  40.938  44.746  0.00  0.00    +0.000 A 
ATOM      5  C   UNL     1      24.217  38.879  45.990  0.00  0.00    +0.000 A 
ATOM      6  C   UNL     1      23.258  40.631  44.044  0.00  0.00    +0.000 A 
ATOM      7  C   UNL     1      23.054  38.573  45.292  0.00  0.00    +0.000 A 
ATOM      8  C   UNL     1      22.537  39.477  44.362  0.00  0.00    +0.000 A 
BRANCH   3   9
ATOM      9  O   UNL     1      25.805  40.420  46.710  0.00  0.00    +0.000 OA
BRANCH   9  12
ATOM     10  I   UNL     1      22.417  41.175  47.835  0.00  0.00    +0.000 I 
ATOM     11  C   UNL     1      24.388  41.775  48.309  0.00  0.00    +0.000 A 
ATOM     12  C   UNL     1      25.581  41.262  47.777  0.00  0.00    +0.000 A 
ATOM     13  C   UNL     1      24.438  42.673  49.392  0.00  0.00    +0.000 A 
ATOM     14  C   UNL     1      26.783  41.532  48.463  0.00  0.00    +0.000 A 
ATOM     15  C   UNL     1      25.643  42.952  50.033  0.00  0.00    +0.000 A 
ATOM     16  C   UNL     1      26.809  42.348  49.594  0.00  0.00    +0.000 A 
ENDBRANCH   9  12
ENDBRANCH   3   9
ENDBRANCH   1   8
BRANCH   2  17
ATOM     17  N   UNL     1      19.840  40.874  45.095  0.00  0.00    +0.000 N 
ATOM     18  C   UNL     1      19.712  42.215  44.768  0.00  0.00    +0.000 C 
ATOM     19  O   UNL     1      19.636  42.664  43.638  0.00  0.00    +0.000 OA
ATOM     20  H   UNL     1      19.796  40.636  46.050  0.00  0.00    +0.000 HD
BRANCH  18  21
ATOM     21  C   UNL     1      19.550  43.135  45.961  0.00  0.00    +0.000 C 
BRANCH  21  22
ATOM     22  C   UNL     1      18.053  43.399  46.146  0.00  0.00    +0.000 C 
BRANCH  22  23
ATOM     23  C   UNL     1      17.296  42.206  46.708  0.00  0.00    +0.000 C 
ATOM     24  C   UNL     1      18.219  41.188  47.379  0.00  0.00    +0.000 C 
ATOM     25  C   UNL     1      16.606  41.349  45.651  0.00  0.00    +0.000 C 
ATOM     26  C   UNL     1      17.385  39.912  47.452  0.00  0.00    +0.000 C 
ATOM     27  C   UNL     1      16.277  40.069  46.408  0.00  0.00    +0.000 C 
ENDBRANCH  22  23
ENDBRANCH  21  22
ENDBRANCH  18  21
ENDBRANCH   2  17
BRANCH   2  28
ATOM     28  C   UNL     1      18.811  39.229  43.536  0.00  0.00    +0.000 C 
ATOM     29  O   UNL     1      18.030  39.820  42.807  0.00  0.00    +0.000 OA
ATOM     30  OXT UNL     1      18.660  37.922  43.857  0.00  0.00    +0.000 OA
ENDBRANCH   2  28
TORSDOF 8
ENDMDL
MODEL 9
REMARK VINA RESULT:      -6.5      2.068      3.881
REMARK  Name = 323637
REMARK  8 active torsions:
REMARK  status: ('A' for Active; 'I' for Inactive)
REMARK    1  A    between atoms: C_3  and  O_5
REMARK    2  A    between atoms: O_5  and  C_8
REMARK    3  A    between atoms: C_14  and  C_15
REMARK    4  A    between atoms: CA_16  and  N_17
REMARK    5  A    between atoms: CA_16  and  C_18
REMARK    6  A    between atoms: C_19  and  C_23
REMARK    7  A    between atoms: C_23  and  C_24
REMARK    8  A    between atoms: C_24  and  C_25
REMARK                            x       y       z     vdW  Elec       q    Type
REMARK                         _______ _______ _______ _____ _____    ______ ____
ROOT
ATOM      1  C   UNL     1      17.969  39.796  47.003  0.00  0.00    +0.000 C 
ATOM      2  CA  UNL     1      17.064  39.536  46.043  0.00  0.00    +0.000 C 
ENDROOT
BRANCH   1   8
ATOM      3  C   UNL     1      21.484  42.108  47.416  0.00  0.00    +0.000 A 
ATOM      4  C   UNL     1      20.287  42.762  47.111  0.00  0.00    +0.000 A 
ATOM      5  C   UNL     1      21.575  40.725  47.274  0.00  0.00    +0.000 A 
ATOM      6  C   UNL     1      19.125  42.005  46.907  0.00  0.00    +0.000 A 
ATOM      7  C   UNL     1      20.423  39.974  47.069  0.00  0.00    +0.000 A 
ATOM      8  C   UNL     1      19.185  40.609  46.948  0.00  0.00    +0.000 A 
BRANCH   3   9
ATOM      9  O   UNL     1      22.620  42.719  47.865  0.00  0.00    +0.000 OA
BRANCH   9  12
ATOM     10  I   UNL     1      25.043  42.940  50.584  0.00  0.00    +0.000 I 
ATOM     11  C   UNL     1      24.976  42.180  48.612  0.00  0.00    +0.000 A 
ATOM     12  C   UNL     1      23.862  42.135  47.758  0.00  0.00    +0.000 A 
ATOM     13  C   UNL     1      26.165  41.524  48.239  0.00  0.00    +0.000 A 
ATOM     14  C   UNL     1      23.921  41.284  46.636  0.00  0.00    +0.000 A 
ATOM     15  C   UNL     1      26.211  40.716  47.106  0.00  0.00    +0.000 A 
ATOM     16  C   UNL     1      25.076  40.563  46.328  0.00  0.00    +0.000 A 
ENDBRANCH   9  12
ENDBRANCH   3   9
ENDBRANCH   1   8
BRANCH   2  17
ATOM     17  N   UNL     1      17.116  39.920  44.712  0.00  0.00    +0.000 N 
ATOM     18  C   UNL     1      16.793  41.177  44.224  0.00  0.00    +0.000 C 
ATOM     19  O   UNL     1      16.523  42.153  44.902  0.00  0.00    +0.000 OA
ATOM     20  H   UNL     1      17.405  39.243  44.058  0.00  0.00    +0.000 HD
BRANCH  18  21
ATOM     21  C   UNL     1      16.911  41.311  42.719  0.00  0.00    +0.000 C 
BRANCH  21  22
ATOM     22  C   UNL     1      18.315  41.834  42.406  0.00  0.00    +0.000 C 
BRANCH  22  23
ATOM     23  C   UNL     1      19.390  41.252  43.311  0.00  0.00    +0.000 C 
ATOM     24  C   UNL     1      20.695  42.047  43.258  0.00  0.00    +0.000 C 
ATOM     25  C   UNL     1      19.860  39.857  42.908  0.00  0.00    +0.000 C 
ATOM     26  C   UNL     1      21.742  41.093  43.827  0.00  0.00    +0.000 C 
ATOM     27  C   UNL     1      21.150  39.688  43.699  0.00  0.00    +0.000 C 
ENDBRANCH  22  23
ENDBRANCH  21  22
ENDBRANCH  18  21
ENDBRANCH   2  17
BRANCH   2  28
ATOM     28  C   UNL     1      15.854  38.780  46.528  0.00  0.00    +0.000 C 
ATOM     29  O   UNL     1      15.099  39.148  47.414  0.00  0.00    +0.000 OA
ATOM     30  OXT UNL     1      15.686  37.607  45.870  0.00  0.00    +0.000 OA
ENDBRANCH   2  28
TORSDOF 8
ENDMDL
