MODEL 1
REMARK VINA RESULT:      -7.7      0.000      0.000
REMARK  Name = 322029
REMARK  8 active torsions:
REMARK  status: ('A' for Active; 'I' for Inactive)
REMARK    1  A    between atoms: C_3  and  O_5
REMARK    2  A    between atoms: O_5  and  C_8
REMARK    3  A    between atoms: C_14  and  C_15
REMARK    4  A    between atoms: CA_16  and  N_17
REMARK    5  A    between atoms: CA_16  and  C_18
REMARK    6  A    between atoms: C_19  and  C_23
REMARK    7  A    between atoms: C_23  and  C_24
REMARK    8  A    between atoms: C_29  and  C_30
REMARK                            x       y       z     vdW  Elec       q    Type
REMARK                         _______ _______ _______ _____ _____    ______ ____
ROOT
ATOM      1  C   UNL     1      23.995  40.991  47.556  0.00  0.00    +0.000 C 
ATOM      2  CA  UNL     1      23.453  41.868  48.416  0.00  0.00    +0.000 C 
ENDROOT
BRANCH   1   8
ATOM      3  C   UNL     1      21.865  39.725  44.144  0.00  0.00    +0.000 A 
ATOM      4  C   UNL     1      21.515  39.210  45.391  0.00  0.00    +0.000 A 
ATOM      5  C   UNL     1      23.083  40.390  43.982  0.00  0.00    +0.000 A 
ATOM      6  C   UNL     1      22.300  39.511  46.510  0.00  0.00    +0.000 A 
ATOM      7  C   UNL     1      23.841  40.725  45.102  0.00  0.00    +0.000 A 
ATOM      8  C   UNL     1      23.426  40.335  46.376  0.00  0.00    +0.000 A 
BRANCH   3   9
ATOM      9  O   UNL     1      20.952  39.587  43.119  0.00  0.00    +0.000 OA
BRANCH   9  12
ATOM     10 BR   UNL     1      18.466  37.894  43.808  0.00  0.00    +0.000 Br
ATOM     11  C   UNL     1      18.579  39.745  43.410  0.00  0.00    +0.000 A 
ATOM     12  C   UNL     1      19.806  40.368  43.157  0.00  0.00    +0.000 A 
ATOM     13  C   UNL     1      17.390  40.485  43.380  0.00  0.00    +0.000 A 
ATOM     14  C   UNL     1      19.831  41.761  42.974  0.00  0.00    +0.000 A 
ATOM     15  C   UNL     1      17.423  41.855  43.114  0.00  0.00    +0.000 A 
ATOM     16  C   UNL     1      18.644  42.495  42.924  0.00  0.00    +0.000 A 
ENDBRANCH   9  12
ENDBRANCH   3   9
ENDBRANCH   1   8
BRANCH   2  17
ATOM     17  N   UNL     1      22.142  42.312  48.397  0.00  0.00    +0.000 N 
ATOM     18  C   UNL     1      21.531  42.837  47.270  0.00  0.00    +0.000 C 
ATOM     19  O   UNL     1      22.076  42.930  46.172  0.00  0.00    +0.000 OA
ATOM     20  H   UNL     1      21.617  42.254  49.228  0.00  0.00    +0.000 HD
BRANCH  18  21
ATOM     21  C   UNL     1      20.070  43.209  47.465  0.00  0.00    +0.000 C 
BRANCH  21  22
ATOM     22  C   UNL     1      19.081  42.103  47.188  0.00  0.00    +0.000 A 
ATOM     23  C   UNL     1      19.422  40.750  47.311  0.00  0.00    +0.000 A 
ATOM     24  C   UNL     1      17.749  42.435  46.889  0.00  0.00    +0.000 A 
ATOM     25  C   UNL     1      18.466  39.752  47.111  0.00  0.00    +0.000 A 
ATOM     26  C   UNL     1      16.791  41.436  46.695  0.00  0.00    +0.000 A 
ATOM     27  C   UNL     1      17.140  40.083  46.803  0.00  0.00    +0.000 A 
BRANCH  27  28
ATOM     28  C   UNL     1      16.093  39.014  46.612  0.00  0.00    +0.000 C 
ATOM     29  F   UNL     1      15.718  38.836  45.314  0.00  0.00    +0.000 F 
ATOM     30  F   UNL     1      16.513  37.794  47.049  0.00  0.00    +0.000 F 
ATOM     31  F   UNL     1      14.946  39.280  47.297  0.00  0.00    +0.000 F 
ENDBRANCH  27  28
ENDBRANCH  21  22
ENDBRANCH  18  21
ENDBRANCH   2  17
BRANCH   2  32
ATOM     32  C   UNL     1      24.406  42.446  49.426  0.00  0.00    +0.000 C 
ATOM     33  O   UNL     1      24.094  42.876  50.523  0.00  0.00    +0.000 OA
ATOM     34  OXT UNL     1      25.680  42.450  48.971  0.00  0.00    +0.000 OA
ENDBRANCH   2  32
TORSDOF 8
ENDMDL
MODEL 2
REMARK VINA RESULT:      -7.4      1.410      2.030
REMARK  Name = 322029
REMARK  8 active torsions:
REMARK  status: ('A' for Active; 'I' for Inactive)
REMARK    1  A    between atoms: C_3  and  O_5
REMARK    2  A    between atoms: O_5  and  C_8
REMARK    3  A    between atoms: C_14  and  C_15
REMARK    4  A    between atoms: CA_16  and  N_17
REMARK    5  A    between atoms: CA_16  and  C_18
REMARK    6  A    between atoms: C_19  and  C_23
REMARK    7  A    between atoms: C_23  and  C_24
REMARK    8  A    between atoms: C_29  and  C_30
REMARK                            x       y       z     vdW  Elec       q    Type
REMARK                         _______ _______ _______ _____ _____    ______ ____
ROOT
ATOM      1  C   UNL     1      25.613  40.579  46.703  0.00  0.00    +0.000 C 
ATOM      2  CA  UNL     1      25.388  41.604  47.542  0.00  0.00    +0.000 C 
ENDROOT
BRANCH   1   8
ATOM      3  C   UNL     1      22.544  39.199  44.162  0.00  0.00    +0.000 A 
ATOM      4  C   UNL     1      22.990  38.376  45.195  0.00  0.00    +0.000 A 
ATOM      5  C   UNL     1      23.301  40.309  43.779  0.00  0.00    +0.000 A 
ATOM      6  C   UNL     1      24.100  38.760  45.957  0.00  0.00    +0.000 A 
ATOM      7  C   UNL     1      24.380  40.713  44.564  0.00  0.00    +0.000 A 
ATOM      8  C   UNL     1      24.750  39.972  45.687  0.00  0.00    +0.000 A 
BRANCH   3   9
ATOM      9  O   UNL     1      21.328  38.894  43.585  0.00  0.00    +0.000 OA
BRANCH   9  12
ATOM     10 BR   UNL     1      18.447  37.806  43.764  0.00  0.00    +0.000 Br
ATOM     11  C   UNL     1      19.037  39.584  43.462  0.00  0.00    +0.000 A 
ATOM     12  C   UNL     1      20.397  39.913  43.452  0.00  0.00    +0.000 A 
ATOM     13  C   UNL     1      18.068  40.572  43.252  0.00  0.00    +0.000 A 
ATOM     14  C   UNL     1      20.763  41.264  43.328  0.00  0.00    +0.000 A 
ATOM     15  C   UNL     1      18.451  41.899  43.048  0.00  0.00    +0.000 A 
ATOM     16  C   UNL     1      19.797  42.247  43.100  0.00  0.00    +0.000 A 
ENDBRANCH   9  12
ENDBRANCH   3   9
ENDBRANCH   1   8
BRANCH   2  17
ATOM     17  N   UNL     1      24.199  42.299  47.666  0.00  0.00    +0.000 N 
ATOM     18  C   UNL     1      23.012  41.714  48.077  0.00  0.00    +0.000 C 
ATOM     19  O   UNL     1      22.904  40.532  48.400  0.00  0.00    +0.000 OA
ATOM     20  H   UNL     1      24.195  43.260  47.451  0.00  0.00    +0.000 HD
BRANCH  18  21
ATOM     21  C   UNL     1      21.845  42.680  48.195  0.00  0.00    +0.000 C 
BRANCH  21  22
ATOM     22  C   UNL     1      20.498  42.114  47.814  0.00  0.00    +0.000 A 
ATOM     23  C   UNL     1      19.314  42.846  47.966  0.00  0.00    +0.000 A 
ATOM     24  C   UNL     1      20.434  40.852  47.201  0.00  0.00    +0.000 A 
ATOM     25  C   UNL     1      18.091  42.319  47.543  0.00  0.00    +0.000 A 
ATOM     26  C   UNL     1      19.212  40.328  46.772  0.00  0.00    +0.000 A 
ATOM     27  C   UNL     1      18.026  41.056  46.939  0.00  0.00    +0.000 A 
BRANCH  27  28
ATOM     28  C   UNL     1      16.715  40.489  46.455  0.00  0.00    +0.000 C 
ATOM     29  F   UNL     1      15.779  40.352  47.435  0.00  0.00    +0.000 F 
ATOM     30  F   UNL     1      16.139  41.264  45.494  0.00  0.00    +0.000 F 
ATOM     31  F   UNL     1      16.857  39.253  45.899  0.00  0.00    +0.000 F 
ENDBRANCH  27  28
ENDBRANCH  21  22
ENDBRANCH  18  21
ENDBRANCH   2  17
BRANCH   2  32
ATOM     32  C   UNL     1      26.581  42.047  48.344  0.00  0.00    +0.000 C 
ATOM     33  O   UNL     1      27.420  41.307  48.828  0.00  0.00    +0.000 OA
ATOM     34  OXT UNL     1      26.619  43.392  48.488  0.00  0.00    +0.000 OA
ENDBRANCH   2  32
TORSDOF 8
ENDMDL
MODEL 3
REMARK VINA RESULT:      -6.8      2.215      3.168
REMARK  Name = 322029
REMARK  8 active torsions:
REMARK  status: ('A' for Active; 'I' for Inactive)
REMARK    1  A    between atoms: C_3  and  O_5
REMARK    2  A    between atoms: O_5  and  C_8
REMARK    3  A    between atoms: C_14  and  C_15
REMARK    4  A    between atoms: CA_16  and  N_17
REMARK    5  A    between atoms: CA_16  and  C_18
REMARK    6  A    between atoms: C_19  and  C_23
REMARK    7  A    between atoms: C_23  and  C_24
REMARK    8  A    between atoms: C_29  and  C_30
REMARK                            x       y       z     vdW  Elec       q    Type
REMARK                         _______ _______ _______ _____ _____    ______ ____
ROOT
ATOM      1  C   UNL     1      24.491  40.441  45.467  0.00  0.00    +0.000 C 
ATOM      2  CA  UNL     1      24.573  41.239  46.544  0.00  0.00    +0.000 C 
ENDROOT
BRANCH   1   8
ATOM      3  C   UNL     1      20.782  39.778  43.574  0.00  0.00    +0.000 A 
ATOM      4  C   UNL     1      21.436  38.705  44.178  0.00  0.00    +0.000 A 
ATOM      5  C   UNL     1      21.476  40.964  43.322  0.00  0.00    +0.000 A 
ATOM      6  C   UNL     1      22.729  38.879  44.686  0.00  0.00    +0.000 A 
ATOM      7  C   UNL     1      22.746  41.151  43.865  0.00  0.00    +0.000 A 
ATOM      8  C   UNL     1      23.355  40.129  44.596  0.00  0.00    +0.000 A 
BRANCH   3   9
ATOM      9  O   UNL     1      19.441  39.626  43.286  0.00  0.00    +0.000 OA
BRANCH   9  12
ATOM     10 BR   UNL     1      16.618  40.491  42.390  0.00  0.00    +0.000 Br
ATOM     11  C   UNL     1      17.229  40.012  44.122  0.00  0.00    +0.000 A 
ATOM     12  C   UNL     1      18.547  39.600  44.347  0.00  0.00    +0.000 A 
ATOM     13  C   UNL     1      16.316  40.076  45.182  0.00  0.00    +0.000 A 
ATOM     14  C   UNL     1      18.907  39.159  45.632  0.00  0.00    +0.000 A 
ATOM     15  C   UNL     1      16.712  39.713  46.471  0.00  0.00    +0.000 A 
ATOM     16  C   UNL     1      18.002  39.242  46.693  0.00  0.00    +0.000 A 
ENDBRANCH   9  12
ENDBRANCH   3   9
ENDBRANCH   1   8
BRANCH   2  17
ATOM     17  N   UNL     1      23.520  41.925  47.123  0.00  0.00    +0.000 N 
ATOM     18  C   UNL     1      22.474  41.301  47.783  0.00  0.00    +0.000 C 
ATOM     19  O   UNL     1      22.392  40.085  47.947  0.00  0.00    +0.000 OA
ATOM     20  H   UNL     1      23.514  42.908  47.062  0.00  0.00    +0.000 HD
BRANCH  18  21
ATOM     21  C   UNL     1      21.458  42.255  48.389  0.00  0.00    +0.000 C 
BRANCH  21  22
ATOM     22  C   UNL     1      20.249  42.539  47.532  0.00  0.00    +0.000 A 
ATOM     23  C   UNL     1      18.987  42.791  48.084  0.00  0.00    +0.000 A 
ATOM     24  C   UNL     1      20.407  42.649  46.140  0.00  0.00    +0.000 A 
ATOM     25  C   UNL     1      17.902  43.116  47.266  0.00  0.00    +0.000 A 
ATOM     26  C   UNL     1      19.323  42.980  45.323  0.00  0.00    +0.000 A 
ATOM     27  C   UNL     1      18.058  43.216  45.877  0.00  0.00    +0.000 A 
BRANCH  27  28
ATOM     28  C   UNL     1      16.899  43.592  44.988  0.00  0.00    +0.000 C 
ATOM     29  F   UNL     1      17.250  43.817  43.691  0.00  0.00    +0.000 F 
ATOM     30  F   UNL     1      15.938  42.627  44.953  0.00  0.00    +0.000 F 
ATOM     31  F   UNL     1      16.270  44.727  45.405  0.00  0.00    +0.000 F 
ENDBRANCH  27  28
ENDBRANCH  21  22
ENDBRANCH  18  21
ENDBRANCH   2  17
BRANCH   2  32
ATOM     32  C   UNL     1      25.961  41.432  47.093  0.00  0.00    +0.000 C 
ATOM     33  O   UNL     1      26.859  40.609  47.044  0.00  0.00    +0.000 OA
ATOM     34  OXT UNL     1      26.107  42.644  47.675  0.00  0.00    +0.000 OA
ENDBRANCH   2  32
TORSDOF 8
ENDMDL
MODEL 4
REMARK VINA RESULT:      -6.2      2.834      6.228
REMARK  Name = 322029
REMARK  8 active torsions:
REMARK  status: ('A' for Active; 'I' for Inactive)
REMARK    1  A    between atoms: C_3  and  O_5
REMARK    2  A    between atoms: O_5  and  C_8
REMARK    3  A    between atoms: C_14  and  C_15
REMARK    4  A    between atoms: CA_16  and  N_17
REMARK    5  A    between atoms: CA_16  and  C_18
REMARK    6  A    between atoms: C_19  and  C_23
REMARK    7  A    between atoms: C_23  and  C_24
REMARK    8  A    between atoms: C_29  and  C_30
REMARK                            x       y       z     vdW  Elec       q    Type
REMARK                         _______ _______ _______ _____ _____    ______ ____
ROOT
ATOM      1  C   UNL     1      20.186  42.564  43.551  0.00  0.00    +0.000 C 
ATOM      2  CA  UNL     1      18.865  42.326  43.532  0.00  0.00    +0.000 C 
ENDROOT
BRANCH   1   8
ATOM      3  C   UNL     1      22.506  41.291  46.834  0.00  0.00    +0.000 A 
ATOM      4  C   UNL     1      22.141  42.633  46.742  0.00  0.00    +0.000 A 
ATOM      5  C   UNL     1      22.384  40.458  45.719  0.00  0.00    +0.000 A 
ATOM      6  C   UNL     1      21.493  43.098  45.591  0.00  0.00    +0.000 A 
ATOM      7  C   UNL     1      21.701  40.909  44.590  0.00  0.00    +0.000 A 
ATOM      8  C   UNL     1      21.205  42.213  44.543  0.00  0.00    +0.000 A 
BRANCH   3   9
ATOM      9  O   UNL     1      22.939  40.831  48.061  0.00  0.00    +0.000 OA
BRANCH   9  12
ATOM     10 BR   UNL     1      25.731  40.664  46.759  0.00  0.00    +0.000 Br
ATOM     11  C   UNL     1      25.194  41.596  48.321  0.00  0.00    +0.000 A 
ATOM     12  C   UNL     1      23.863  41.599  48.754  0.00  0.00    +0.000 A 
ATOM     13  C   UNL     1      26.173  42.295  49.040  0.00  0.00    +0.000 A 
ATOM     14  C   UNL     1      23.514  42.394  49.858  0.00  0.00    +0.000 A 
ATOM     15  C   UNL     1      25.824  43.014  50.184  0.00  0.00    +0.000 A 
ATOM     16  C   UNL     1      24.493  43.075  50.585  0.00  0.00    +0.000 A 
ENDBRANCH   9  12
ENDBRANCH   3   9
ENDBRANCH   1   8
BRANCH   2  17
ATOM     17  N   UNL     1      18.141  41.714  44.540  0.00  0.00    +0.000 N 
ATOM     18  C   UNL     1      17.758  42.360  45.705  0.00  0.00    +0.000 C 
ATOM     19  O   UNL     1      17.995  43.543  45.944  0.00  0.00    +0.000 OA
ATOM     20  H   UNL     1      17.885  40.770  44.425  0.00  0.00    +0.000 HD
BRANCH  18  21
ATOM     21  C   UNL     1      16.921  41.511  46.646  0.00  0.00    +0.000 C 
BRANCH  21  22
ATOM     22  C   UNL     1      16.898  40.034  46.334  0.00  0.00    +0.000 A 
ATOM     23  C   UNL     1      15.770  39.240  46.575  0.00  0.00    +0.000 A 
ATOM     24  C   UNL     1      18.005  39.452  45.693  0.00  0.00    +0.000 A 
ATOM     25  C   UNL     1      15.757  37.891  46.213  0.00  0.00    +0.000 A 
ATOM     26  C   UNL     1      17.989  38.104  45.326  0.00  0.00    +0.000 A 
ATOM     27  C   UNL     1      16.865  37.308  45.583  0.00  0.00    +0.000 A 
BRANCH  27  28
ATOM     28  C   UNL     1      16.852  35.859  45.165  0.00  0.00    +0.000 C 
ATOM     29  F   UNL     1      15.606  35.373  44.903  0.00  0.00    +0.000 F 
ATOM     30  F   UNL     1      17.584  35.638  44.038  0.00  0.00    +0.000 F 
ATOM     31  F   UNL     1      17.379  35.039  46.117  0.00  0.00    +0.000 F 
ENDBRANCH  27  28
ENDBRANCH  21  22
ENDBRANCH  18  21
ENDBRANCH   2  17
BRANCH   2  32
ATOM     32  C   UNL     1      18.164  42.708  42.257  0.00  0.00    +0.000 C 
ATOM     33  O   UNL     1      17.336  42.026  41.677  0.00  0.00    +0.000 OA
ATOM     34  OXT UNL     1      18.569  43.916  41.803  0.00  0.00    +0.000 OA
ENDBRANCH   2  32
TORSDOF 8
ENDMDL
MODEL 5
REMARK VINA RESULT:      -5.7      2.530      4.632
REMARK  Name = 322029
REMARK  8 active torsions:
REMARK  status: ('A' for Active; 'I' for Inactive)
REMARK    1  A    between atoms: C_3  and  O_5
REMARK    2  A    between atoms: O_5  and  C_8
REMARK    3  A    between atoms: C_14  and  C_15
REMARK    4  A    between atoms: CA_16  and  N_17
REMARK    5  A    between atoms: CA_16  and  C_18
REMARK    6  A    between atoms: C_19  and  C_23
REMARK    7  A    between atoms: C_23  and  C_24
REMARK    8  A    between atoms: C_29  and  C_30
REMARK                            x       y       z     vdW  Elec       q    Type
REMARK                         _______ _______ _______ _____ _____    ______ ____
ROOT
ATOM      1  C   UNL     1      23.880  41.963  47.446  0.00  0.00    +0.000 C 
ATOM      2  CA  UNL     1      24.473  41.178  46.533  0.00  0.00    +0.000 C 
ENDROOT
BRANCH   1   8
ATOM      3  C   UNL     1      19.712  42.467  47.841  0.00  0.00    +0.000 A 
ATOM      4  C   UNL     1      20.278  42.473  46.567  0.00  0.00    +0.000 A 
ATOM      5  C   UNL     1      20.528  42.612  48.967  0.00  0.00    +0.000 A 
ATOM      6  C   UNL     1      21.671  42.448  46.427  0.00  0.00    +0.000 A 
ATOM      7  C   UNL     1      21.914  42.544  48.828  0.00  0.00    +0.000 A 
ATOM      8  C   UNL     1      22.489  42.407  47.564  0.00  0.00    +0.000 A 
BRANCH   3   9
ATOM      9  O   UNL     1      18.349  42.272  47.932  0.00  0.00    +0.000 OA
BRANCH   9  12
ATOM     10 BR   UNL     1      16.536  43.393  45.703  0.00  0.00    +0.000 Br
ATOM     11  C   UNL     1      16.897  41.586  46.155  0.00  0.00    +0.000 A 
ATOM     12  C   UNL     1      17.787  41.251  47.181  0.00  0.00    +0.000 A 
ATOM     13  C   UNL     1      16.247  40.583  45.425  0.00  0.00    +0.000 A 
ATOM     14  C   UNL     1      18.090  39.895  47.396  0.00  0.00    +0.000 A 
ATOM     15  C   UNL     1      16.496  39.238  45.706  0.00  0.00    +0.000 A 
ATOM     16  C   UNL     1      17.427  38.895  46.681  0.00  0.00    +0.000 A 
ENDBRANCH   9  12
ENDBRANCH   3   9
ENDBRANCH   1   8
BRANCH   2  17
ATOM     17  N   UNL     1      23.864  40.643  45.411  0.00  0.00    +0.000 N 
ATOM     18  C   UNL     1      23.334  39.363  45.368  0.00  0.00    +0.000 C 
ATOM     19  O   UNL     1      23.322  38.591  46.325  0.00  0.00    +0.000 OA
ATOM     20  H   UNL     1      23.806  41.199  44.601  0.00  0.00    +0.000 HD
BRANCH  18  21
ATOM     21  C   UNL     1      22.665  39.007  44.051  0.00  0.00    +0.000 C 
BRANCH  21  22
ATOM     22  C   UNL     1      21.424  39.802  43.723  0.00  0.00    +0.000 A 
ATOM     23  C   UNL     1      21.485  41.134  43.295  0.00  0.00    +0.000 A 
ATOM     24  C   UNL     1      20.174  39.163  43.754  0.00  0.00    +0.000 A 
ATOM     25  C   UNL     1      20.324  41.822  42.936  0.00  0.00    +0.000 A 
ATOM     26  C   UNL     1      19.012  39.850  43.388  0.00  0.00    +0.000 A 
ATOM     27  C   UNL     1      19.075  41.188  42.976  0.00  0.00    +0.000 A 
BRANCH  27  28
ATOM     28  C   UNL     1      17.818  41.913  42.565  0.00  0.00    +0.000 C 
ATOM     29  F   UNL     1      16.670  41.262  42.904  0.00  0.00    +0.000 F 
ATOM     30  F   UNL     1      17.726  43.150  43.128  0.00  0.00    +0.000 F 
ATOM     31  F   UNL     1      17.750  42.112  41.218  0.00  0.00    +0.000 F 
ENDBRANCH  27  28
ENDBRANCH  21  22
ENDBRANCH  18  21
ENDBRANCH   2  17
BRANCH   2  32
ATOM     32  C   UNL     1      25.902  40.814  46.832  0.00  0.00    +0.000 C 
ATOM     33  O   UNL     1      26.535  41.185  47.806  0.00  0.00    +0.000 OA
ATOM     34  OXT UNL     1      26.430  40.019  45.873  0.00  0.00    +0.000 OA
ENDBRANCH   2  32
TORSDOF 8
ENDMDL
MODEL 6
REMARK VINA RESULT:      -5.2      2.425      4.406
REMARK  Name = 322029
REMARK  8 active torsions:
REMARK  status: ('A' for Active; 'I' for Inactive)
REMARK    1  A    between atoms: C_3  and  O_5
REMARK    2  A    between atoms: O_5  and  C_8
REMARK    3  A    between atoms: C_14  and  C_15
REMARK    4  A    between atoms: CA_16  and  N_17
REMARK    5  A    between atoms: CA_16  and  C_18
REMARK    6  A    between atoms: C_19  and  C_23
REMARK    7  A    between atoms: C_23  and  C_24
REMARK    8  A    between atoms: C_29  and  C_30
REMARK                            x       y       z     vdW  Elec       q    Type
REMARK                         _______ _______ _______ _____ _____    ______ ____
ROOT
ATOM      1  C   UNL     1      22.295  42.756  49.098  0.00  0.00    +0.000 C 
ATOM      2  CA  UNL     1      23.544  42.291  48.939  0.00  0.00    +0.000 C 
ENDROOT
BRANCH   1   8
ATOM      3  C   UNL     1      18.708  41.575  47.221  0.00  0.00    +0.000 A 
ATOM      4  C   UNL     1      19.924  41.175  46.671  0.00  0.00    +0.000 A 
ATOM      5  C   UNL     1      18.677  42.597  48.174  0.00  0.00    +0.000 A 
ATOM      6  C   UNL     1      21.121  41.674  47.199  0.00  0.00    +0.000 A 
ATOM      7  C   UNL     1      19.869  43.061  48.728  0.00  0.00    +0.000 A 
ATOM      8  C   UNL     1      21.093  42.563  48.282  0.00  0.00    +0.000 A 
BRANCH   3   9
ATOM      9  O   UNL     1      17.574  40.899  46.820  0.00  0.00    +0.000 OA
BRANCH   9  12
ATOM     10 BR   UNL     1      17.092  38.058  45.716  0.00  0.00    +0.000 Br
ATOM     11  C   UNL     1      17.032  39.721  44.806  0.00  0.00    +0.000 A 
ATOM     12  C   UNL     1      17.238  40.933  45.475  0.00  0.00    +0.000 A 
ATOM     13  C   UNL     1      16.768  39.709  43.430  0.00  0.00    +0.000 A 
ATOM     14  C   UNL     1      17.075  42.134  44.764  0.00  0.00    +0.000 A 
ATOM     15  C   UNL     1      16.692  40.908  42.719  0.00  0.00    +0.000 A 
ATOM     16  C   UNL     1      16.831  42.120  43.388  0.00  0.00    +0.000 A 
ENDBRANCH   9  12
ENDBRANCH   3   9
ENDBRANCH   1   8
BRANCH   2  17
ATOM     17  N   UNL     1      23.994  41.534  47.872  0.00  0.00    +0.000 N 
ATOM     18  C   UNL     1      25.310  41.123  47.729  0.00  0.00    +0.000 C 
ATOM     19  O   UNL     1      26.196  41.359  48.548  0.00  0.00    +0.000 OA
ATOM     20  H   UNL     1      23.347  41.276  47.176  0.00  0.00    +0.000 HD
BRANCH  18  21
ATOM     21  C   UNL     1      25.566  40.254  46.509  0.00  0.00    +0.000 C 
BRANCH  21  22
ATOM     22  C   UNL     1      24.366  40.016  45.624  0.00  0.00    +0.000 A 
ATOM     23  C   UNL     1      23.676  38.798  45.617  0.00  0.00    +0.000 A 
ATOM     24  C   UNL     1      23.864  41.077  44.851  0.00  0.00    +0.000 A 
ATOM     25  C   UNL     1      22.530  38.631  44.836  0.00  0.00    +0.000 A 
ATOM     26  C   UNL     1      22.715  40.912  44.074  0.00  0.00    +0.000 A 
ATOM     27  C   UNL     1      22.035  39.687  44.058  0.00  0.00    +0.000 A 
BRANCH  27  28
ATOM     28  C   UNL     1      20.784  39.525  43.231  0.00  0.00    +0.000 C 
ATOM     29  F   UNL     1      21.023  39.301  41.908  0.00  0.00    +0.000 F 
ATOM     30  F   UNL     1      20.014  38.485  43.653  0.00  0.00    +0.000 F 
ATOM     31  F   UNL     1      19.982  40.626  43.283  0.00  0.00    +0.000 F 
ENDBRANCH  27  28
ENDBRANCH  21  22
ENDBRANCH  18  21
ENDBRANCH   2  17
BRANCH   2  32
ATOM     32  C   UNL     1      24.483  42.578  50.079  0.00  0.00    +0.000 C 
ATOM     33  O   UNL     1      25.455  43.311  50.023  0.00  0.00    +0.000 OA
ATOM     34  OXT UNL     1      24.133  41.907  51.201  0.00  0.00    +0.000 OA
ENDBRANCH   2  32
TORSDOF 8
ENDMDL
