MODEL 1
REMARK VINA RESULT:      -7.8      0.000      0.000
REMARK  Name = 322322
REMARK  7 active torsions:
REMARK  status: ('A' for Active; 'I' for Inactive)
REMARK    1  A    between atoms: C_3  and  O_5
REMARK    2  A    between atoms: O_5  and  C_8
REMARK    3  A    between atoms: C_14  and  C_15
REMARK    4  A    between atoms: CA_16  and  N_17
REMARK    5  A    between atoms: CA_16  and  C_18
REMARK    6  A    between atoms: C_19  and  C_23
REMARK    7  A    between atoms: C_23  and  C_24
REMARK                            x       y       z     vdW  Elec       q    Type
REMARK                         _______ _______ _______ _____ _____    ______ ____
ROOT
ATOM      1  C   UNL     1      24.118  40.785  45.744  0.00  0.00    +0.000 C 
ATOM      2  CA  UNL     1      24.008  41.472  46.892  0.00  0.00    +0.000 C 
ENDROOT
BRANCH   1   8
ATOM      3  C   UNL     1      20.750  39.583  43.483  0.00  0.00    +0.000 A 
ATOM      4  C   UNL     1      21.636  38.616  43.958  0.00  0.00    +0.000 A 
ATOM      5  C   UNL     1      21.113  40.930  43.505  0.00  0.00    +0.000 A 
ATOM      6  C   UNL     1      22.816  39.008  44.597  0.00  0.00    +0.000 A 
ATOM      7  C   UNL     1      22.282  41.323  44.165  0.00  0.00    +0.000 A 
ATOM      8  C   UNL     1      23.114  40.365  44.758  0.00  0.00    +0.000 A 
BRANCH   3   9
ATOM      9  O   UNL     1      19.530  39.143  43.013  0.00  0.00    +0.000 OA
BRANCH   9  12
ATOM     10 BR   UNL     1      17.436  41.325  42.457  0.00  0.00    +0.000 Br
ATOM     11  C   UNL     1      17.438  39.987  43.803  0.00  0.00    +0.000 A 
ATOM     12  C   UNL     1      18.472  39.047  43.902  0.00  0.00    +0.000 A 
ATOM     13  C   UNL     1      16.366  39.960  44.703  0.00  0.00    +0.000 A 
ATOM     14  C   UNL     1      18.369  38.031  44.864  0.00  0.00    +0.000 A 
ATOM     15  C   UNL     1      16.311  38.985  45.700  0.00  0.00    +0.000 A 
ATOM     16  C   UNL     1      17.307  38.014  45.773  0.00  0.00    +0.000 A 
ENDBRANCH   9  12
ENDBRANCH   3   9
ENDBRANCH   1   8
BRANCH   2  17
ATOM     17  N   UNL     1      22.894  42.123  47.402  0.00  0.00    +0.000 N 
ATOM     18  C   UNL     1      21.682  41.517  47.683  0.00  0.00    +0.000 C 
ATOM     19  O   UNL     1      21.427  40.336  47.464  0.00  0.00    +0.000 OA
ATOM     20  H   UNL     1      22.971  43.089  47.577  0.00  0.00    +0.000 HD
BRANCH  18  21
ATOM     21  C   UNL     1      20.615  42.483  48.178  0.00  0.00    +0.000 C 
BRANCH  21  22
ATOM     22  C   UNL     1      19.476  42.727  47.220  0.00  0.00    +0.000 A 
ATOM     23  C   UNL     1      18.169  42.854  47.725  0.00  0.00    +0.000 A 
ATOM     24  C   UNL     1      19.695  42.941  45.850  0.00  0.00    +0.000 A 
ATOM     25  C   UNL     1      17.106  43.173  46.875  0.00  0.00    +0.000 A 
ATOM     26  C   UNL     1      18.631  43.256  45.002  0.00  0.00    +0.000 A 
ATOM     27  C   UNL     1      17.348  43.373  45.522  0.00  0.00    +0.000 A 
ATOM     28  F   UNL     1      16.332  43.697  44.713  0.00  0.00    +0.000 F 
ENDBRANCH  21  22
ENDBRANCH  18  21
ENDBRANCH   2  17
BRANCH   2  29
ATOM     29  C   UNL     1      25.251  41.497  47.734  0.00  0.00    +0.000 C 
ATOM     30  O   UNL     1      26.324  41.012  47.428  0.00  0.00    +0.000 OA
ATOM     31  OXT UNL     1      25.024  42.128  48.908  0.00  0.00    +0.000 OA
ENDBRANCH   2  29
TORSDOF 7
ENDMDL
MODEL 2
REMARK VINA RESULT:      -7.8      3.252      6.886
REMARK  Name = 322322
REMARK  7 active torsions:
REMARK  status: ('A' for Active; 'I' for Inactive)
REMARK    1  A    between atoms: C_3  and  O_5
REMARK    2  A    between atoms: O_5  and  C_8
REMARK    3  A    between atoms: C_14  and  C_15
REMARK    4  A    between atoms: CA_16  and  N_17
REMARK    5  A    between atoms: CA_16  and  C_18
REMARK    6  A    between atoms: C_19  and  C_23
REMARK    7  A    between atoms: C_23  and  C_24
REMARK                            x       y       z     vdW  Elec       q    Type
REMARK                         _______ _______ _______ _____ _____    ______ ____
ROOT
ATOM      1  C   UNL     1      20.328  42.160  43.507  0.00  0.00    +0.000 C 
ATOM      2  CA  UNL     1      18.988  42.064  43.502  0.00  0.00    +0.000 C 
ENDROOT
BRANCH   1   8
ATOM      3  C   UNL     1      22.614  41.045  46.889  0.00  0.00    +0.000 A 
ATOM      4  C   UNL     1      22.153  42.357  46.776  0.00  0.00    +0.000 A 
ATOM      5  C   UNL     1      22.569  40.195  45.783  0.00  0.00    +0.000 A 
ATOM      6  C   UNL     1      21.506  42.769  45.607  0.00  0.00    +0.000 A 
ATOM      7  C   UNL     1      21.901  40.600  44.623  0.00  0.00    +0.000 A 
ATOM      8  C   UNL     1      21.322  41.873  44.549  0.00  0.00    +0.000 A 
BRANCH   3   9
ATOM      9  O   UNL     1      23.093  40.649  48.120  0.00  0.00    +0.000 OA
BRANCH   9  12
ATOM     10 BR   UNL     1      25.842  40.663  46.743  0.00  0.00    +0.000 Br
ATOM     11  C   UNL     1      25.284  41.586  48.305  0.00  0.00    +0.000 A 
ATOM     12  C   UNL     1      23.972  41.484  48.789  0.00  0.00    +0.000 A 
ATOM     13  C   UNL     1      26.225  42.383  48.968  0.00  0.00    +0.000 A 
ATOM     14  C   UNL     1      23.602  42.260  49.898  0.00  0.00    +0.000 A 
ATOM     15  C   UNL     1      25.859  43.096  50.110  0.00  0.00    +0.000 A 
ATOM     16  C   UNL     1      24.546  43.043  50.568  0.00  0.00    +0.000 A 
ENDBRANCH   9  12
ENDBRANCH   3   9
ENDBRANCH   1   8
BRANCH   2  17
ATOM     17  N   UNL     1      18.162  41.509  44.467  0.00  0.00    +0.000 N 
ATOM     18  C   UNL     1      17.716  42.163  45.602  0.00  0.00    +0.000 C 
ATOM     19  O   UNL     1      18.042  43.304  45.920  0.00  0.00    +0.000 OA
ATOM     20  H   UNL     1      17.871  40.577  44.336  0.00  0.00    +0.000 HD
BRANCH  18  21
ATOM     21  C   UNL     1      16.869  41.293  46.519  0.00  0.00    +0.000 C 
BRANCH  21  22
ATOM     22  C   UNL     1      16.894  39.817  46.208  0.00  0.00    +0.000 A 
ATOM     23  C   UNL     1      15.746  39.043  46.457  0.00  0.00    +0.000 A 
ATOM     24  C   UNL     1      17.992  39.213  45.576  0.00  0.00    +0.000 A 
ATOM     25  C   UNL     1      15.705  37.694  46.095  0.00  0.00    +0.000 A 
ATOM     26  C   UNL     1      17.950  37.864  45.217  0.00  0.00    +0.000 A 
ATOM     27  C   UNL     1      16.808  37.118  45.477  0.00  0.00    +0.000 A 
ATOM     28  F   UNL     1      16.761  35.831  45.113  0.00  0.00    +0.000 F 
ENDBRANCH  21  22
ENDBRANCH  18  21
ENDBRANCH   2  17
BRANCH   2  29
ATOM     29  C   UNL     1      18.318  42.676  42.307  0.00  0.00    +0.000 C 
ATOM     30  O   UNL     1      18.579  43.764  41.826  0.00  0.00    +0.000 OA
ATOM     31  OXT UNL     1      17.356  41.858  41.824  0.00  0.00    +0.000 OA
ENDBRANCH   2  29
TORSDOF 7
ENDMDL
MODEL 3
REMARK VINA RESULT:      -7.1      3.395      7.301
REMARK  Name = 322322
REMARK  7 active torsions:
REMARK  status: ('A' for Active; 'I' for Inactive)
REMARK    1  A    between atoms: C_3  and  O_5
REMARK    2  A    between atoms: O_5  and  C_8
REMARK    3  A    between atoms: C_14  and  C_15
REMARK    4  A    between atoms: CA_16  and  N_17
REMARK    5  A    between atoms: CA_16  and  C_18
REMARK    6  A    between atoms: C_19  and  C_23
REMARK    7  A    between atoms: C_23  and  C_24
REMARK                            x       y       z     vdW  Elec       q    Type
REMARK                         _______ _______ _______ _____ _____    ______ ____
ROOT
ATOM      1  C   UNL     1      18.800  43.267  45.967  0.00  0.00    +0.000 C 
ATOM      2  CA  UNL     1      17.593  43.002  45.440  0.00  0.00    +0.000 C 
ENDROOT
BRANCH   1   8
ATOM      3  C   UNL     1      22.122  41.044  47.356  0.00  0.00    +0.000 A 
ATOM      4  C   UNL     1      22.333  42.275  46.735  0.00  0.00    +0.000 A 
ATOM      5  C   UNL     1      20.874  40.426  47.268  0.00  0.00    +0.000 A 
ATOM      6  C   UNL     1      21.256  42.959  46.161  0.00  0.00    +0.000 A 
ATOM      7  C   UNL     1      19.793  41.119  46.715  0.00  0.00    +0.000 A 
ATOM      8  C   UNL     1      19.971  42.411  46.203  0.00  0.00    +0.000 A 
BRANCH   3   9
ATOM      9  O   UNL     1      23.183  40.497  48.047  0.00  0.00    +0.000 OA
BRANCH   9  12
ATOM     10 BR   UNL     1      25.774  40.553  46.393  0.00  0.00    +0.000 Br
ATOM     11  C   UNL     1      25.364  41.473  48.003  0.00  0.00    +0.000 A 
ATOM     12  C   UNL     1      24.112  41.350  48.619  0.00  0.00    +0.000 A 
ATOM     13  C   UNL     1      26.354  42.290  48.562  0.00  0.00    +0.000 A 
ATOM     14  C   UNL     1      23.844  42.125  49.758  0.00  0.00    +0.000 A 
ATOM     15  C   UNL     1      26.096  43.001  49.734  0.00  0.00    +0.000 A 
ATOM     16  C   UNL     1      24.838  42.927  50.326  0.00  0.00    +0.000 A 
ENDBRANCH   9  12
ENDBRANCH   3   9
ENDBRANCH   1   8
BRANCH   2  17
ATOM     17  N   UNL     1      17.162  41.838  44.821  0.00  0.00    +0.000 N 
ATOM     18  C   UNL     1      17.463  41.474  43.521  0.00  0.00    +0.000 C 
ATOM     19  O   UNL     1      18.109  42.164  42.736  0.00  0.00    +0.000 OA
ATOM     20  H   UNL     1      16.597  41.226  45.345  0.00  0.00    +0.000 HD
BRANCH  18  21
ATOM     21  C   UNL     1      16.806  40.173  43.081  0.00  0.00    +0.000 C 
BRANCH  21  22
ATOM     22  C   UNL     1      16.963  39.018  44.037  0.00  0.00    +0.000 A 
ATOM     23  C   UNL     1      16.135  38.949  45.173  0.00  0.00    +0.000 A 
ATOM     24  C   UNL     1      17.837  37.952  43.772  0.00  0.00    +0.000 A 
ATOM     25  C   UNL     1      16.192  37.846  46.028  0.00  0.00    +0.000 A 
ATOM     26  C   UNL     1      17.894  36.851  44.631  0.00  0.00    +0.000 A 
ATOM     27  C   UNL     1      17.070  36.806  45.748  0.00  0.00    +0.000 A 
ATOM     28  F   UNL     1      17.109  35.741  46.557  0.00  0.00    +0.000 F 
ENDBRANCH  21  22
ENDBRANCH  18  21
ENDBRANCH   2  17
BRANCH   2  29
ATOM     29  C   UNL     1      16.587  44.105  45.585  0.00  0.00    +0.000 C 
ATOM     30  O   UNL     1      16.048  44.699  44.669  0.00  0.00    +0.000 OA
ATOM     31  OXT UNL     1      16.353  44.375  46.890  0.00  0.00    +0.000 OA
ENDBRANCH   2  29
TORSDOF 7
ENDMDL
MODEL 4
REMARK VINA RESULT:      -6.8      2.960      4.811
REMARK  Name = 322322
REMARK  7 active torsions:
REMARK  status: ('A' for Active; 'I' for Inactive)
REMARK    1  A    between atoms: C_3  and  O_5
REMARK    2  A    between atoms: O_5  and  C_8
REMARK    3  A    between atoms: C_14  and  C_15
REMARK    4  A    between atoms: CA_16  and  N_17
REMARK    5  A    between atoms: CA_16  and  C_18
REMARK    6  A    between atoms: C_19  and  C_23
REMARK    7  A    between atoms: C_23  and  C_24
REMARK                            x       y       z     vdW  Elec       q    Type
REMARK                         _______ _______ _______ _____ _____    ______ ____
ROOT
ATOM      1  C   UNL     1      22.658  39.112  44.312  0.00  0.00    +0.000 C 
ATOM      2  CA  UNL     1      23.396  39.532  45.353  0.00  0.00    +0.000 C 
ENDROOT
BRANCH   1   8
ATOM      3  C   UNL     1      18.736  40.518  43.579  0.00  0.00    +0.000 A 
ATOM      4  C   UNL     1      18.954  39.150  43.739  0.00  0.00    +0.000 A 
ATOM      5  C   UNL     1      19.818  41.376  43.380  0.00  0.00    +0.000 A 
ATOM      6  C   UNL     1      20.259  38.662  43.857  0.00  0.00    +0.000 A 
ATOM      7  C   UNL     1      21.122  40.892  43.521  0.00  0.00    +0.000 A 
ATOM      8  C   UNL     1      21.346  39.540  43.809  0.00  0.00    +0.000 A 
BRANCH   3   9
ATOM      9  O   UNL     1      17.430  40.959  43.636  0.00  0.00    +0.000 OA
BRANCH   9  12
ATOM     10 BR   UNL     1      17.227  39.795  46.475  0.00  0.00    +0.000 Br
ATOM     11  C   UNL     1      16.945  41.580  45.892  0.00  0.00    +0.000 A 
ATOM     12  C   UNL     1      17.103  41.947  44.550  0.00  0.00    +0.000 A 
ATOM     13  C   UNL     1      16.574  42.532  46.850  0.00  0.00    +0.000 A 
ATOM     14  C   UNL     1      16.964  43.299  44.201  0.00  0.00    +0.000 A 
ATOM     15  C   UNL     1      16.372  43.861  46.476  0.00  0.00    +0.000 A 
ATOM     16  C   UNL     1      16.578  44.246  45.154  0.00  0.00    +0.000 A 
ENDBRANCH   9  12
ENDBRANCH   3   9
ENDBRANCH   1   8
BRANCH   2  17
ATOM     17  N   UNL     1      23.174  40.625  46.179  0.00  0.00    +0.000 N 
ATOM     18  C   UNL     1      22.122  40.746  47.068  0.00  0.00    +0.000 C 
ATOM     19  O   UNL     1      21.222  39.920  47.198  0.00  0.00    +0.000 OA
ATOM     20  H   UNL     1      23.814  41.371  46.127  0.00  0.00    +0.000 HD
BRANCH  18  21
ATOM     21  C   UNL     1      22.091  42.078  47.804  0.00  0.00    +0.000 C 
BRANCH  21  22
ATOM     22  C   UNL     1      23.332  42.404  48.596  0.00  0.00    +0.000 A 
ATOM     23  C   UNL     1      23.203  42.832  49.929  0.00  0.00    +0.000 A 
ATOM     24  C   UNL     1      24.619  42.188  48.077  0.00  0.00    +0.000 A 
ATOM     25  C   UNL     1      24.335  43.053  50.718  0.00  0.00    +0.000 A 
ATOM     26  C   UNL     1      25.749  42.412  48.866  0.00  0.00    +0.000 A 
ATOM     27  C   UNL     1      25.598  42.839  50.179  0.00  0.00    +0.000 A 
ATOM     28  F   UNL     1      26.680  43.032  50.942  0.00  0.00    +0.000 F 
ENDBRANCH  21  22
ENDBRANCH  18  21
ENDBRANCH   2  17
BRANCH   2  29
ATOM     29  C   UNL     1      24.586  38.675  45.669  0.00  0.00    +0.000 C 
ATOM     30  O   UNL     1      24.576  37.464  45.789  0.00  0.00    +0.000 OA
ATOM     31  OXT UNL     1      25.697  39.431  45.820  0.00  0.00    +0.000 OA
ENDBRANCH   2  29
TORSDOF 7
ENDMDL
MODEL 5
REMARK VINA RESULT:      -6.6      2.249      4.584
REMARK  Name = 322322
REMARK  7 active torsions:
REMARK  status: ('A' for Active; 'I' for Inactive)
REMARK    1  A    between atoms: C_3  and  O_5
REMARK    2  A    between atoms: O_5  and  C_8
REMARK    3  A    between atoms: C_14  and  C_15
REMARK    4  A    between atoms: CA_16  and  N_17
REMARK    5  A    between atoms: CA_16  and  C_18
REMARK    6  A    between atoms: C_19  and  C_23
REMARK    7  A    between atoms: C_23  and  C_24
REMARK                            x       y       z     vdW  Elec       q    Type
REMARK                         _______ _______ _______ _____ _____    ______ ____
ROOT
ATOM      1  C   UNL     1      22.017  42.629  49.008  0.00  0.00    +0.000 C 
ATOM      2  CA  UNL     1      23.292  42.227  49.141  0.00  0.00    +0.000 C 
ENDROOT
BRANCH   1   8
ATOM      3  C   UNL     1      19.037  41.949  46.082  0.00  0.00    +0.000 A 
ATOM      4  C   UNL     1      20.300  41.380  45.918  0.00  0.00    +0.000 A 
ATOM      5  C   UNL     1      18.844  42.950  47.035  0.00  0.00    +0.000 A 
ATOM      6  C   UNL     1      21.328  41.699  46.811  0.00  0.00    +0.000 A 
ATOM      7  C   UNL     1      19.865  43.251  47.942  0.00  0.00    +0.000 A 
ATOM      8  C   UNL     1      21.097  42.589  47.864  0.00  0.00    +0.000 A 
BRANCH   3   9
ATOM      9  O   UNL     1      18.022  41.474  45.277  0.00  0.00    +0.000 OA
BRANCH   9  12
ATOM     10 BR   UNL     1      18.959  39.194  43.440  0.00  0.00    +0.000 Br
ATOM     11  C   UNL     1      17.704  39.142  44.863  0.00  0.00    +0.000 A 
ATOM     12  C   UNL     1      17.407  40.282  45.621  0.00  0.00    +0.000 A 
ATOM     13  C   UNL     1      17.078  37.921  45.142  0.00  0.00    +0.000 A 
ATOM     14  C   UNL     1      16.536  40.156  46.715  0.00  0.00    +0.000 A 
ATOM     15  C   UNL     1      16.161  37.826  46.190  0.00  0.00    +0.000 A 
ATOM     16  C   UNL     1      15.899  38.941  46.982  0.00  0.00    +0.000 A 
ENDBRANCH   9  12
ENDBRANCH   3   9
ENDBRANCH   1   8
BRANCH   2  17
ATOM     17  N   UNL     1      24.065  41.505  48.244  0.00  0.00    +0.000 N 
ATOM     18  C   UNL     1      25.398  41.753  47.968  0.00  0.00    +0.000 C 
ATOM     19  O   UNL     1      26.048  42.679  48.448  0.00  0.00    +0.000 OA
ATOM     20  H   UNL     1      23.632  40.761  47.766  0.00  0.00    +0.000 HD
BRANCH  18  21
ATOM     21  C   UNL     1      25.982  40.843  46.896  0.00  0.00    +0.000 C 
BRANCH  21  22
ATOM     22  C   UNL     1      24.972  40.201  45.979  0.00  0.00    +0.000 A 
ATOM     23  C   UNL     1      24.518  38.900  46.260  0.00  0.00    +0.000 A 
ATOM     24  C   UNL     1      24.388  40.905  44.913  0.00  0.00    +0.000 A 
ATOM     25  C   UNL     1      23.516  38.313  45.484  0.00  0.00    +0.000 A 
ATOM     26  C   UNL     1      23.389  40.315  44.137  0.00  0.00    +0.000 A 
ATOM     27  C   UNL     1      22.959  39.027  44.430  0.00  0.00    +0.000 A 
ATOM     28  F   UNL     1      21.986  38.471  43.699  0.00  0.00    +0.000 F 
ENDBRANCH  21  22
ENDBRANCH  18  21
ENDBRANCH   2  17
BRANCH   2  29
ATOM     29  C   UNL     1      23.957  42.656  50.416  0.00  0.00    +0.000 C 
ATOM     30  O   UNL     1      24.197  41.936  51.368  0.00  0.00    +0.000 OA
ATOM     31  OXT UNL     1      24.255  43.975  50.383  0.00  0.00    +0.000 OA
ENDBRANCH   2  29
TORSDOF 7
ENDMDL
MODEL 6
REMARK VINA RESULT:      -6.3      2.880      6.206
REMARK  Name = 322322
REMARK  7 active torsions:
REMARK  status: ('A' for Active; 'I' for Inactive)
REMARK    1  A    between atoms: C_3  and  O_5
REMARK    2  A    between atoms: O_5  and  C_8
REMARK    3  A    between atoms: C_14  and  C_15
REMARK    4  A    between atoms: CA_16  and  N_17
REMARK    5  A    between atoms: CA_16  and  C_18
REMARK    6  A    between atoms: C_19  and  C_23
REMARK    7  A    between atoms: C_23  and  C_24
REMARK                            x       y       z     vdW  Elec       q    Type
REMARK                         _______ _______ _______ _____ _____    ______ ____
ROOT
ATOM      1  C   UNL     1      19.760  40.547  43.086  0.00  0.00    +0.000 C 
ATOM      2  CA  UNL     1      18.517  40.699  43.570  0.00  0.00    +0.000 C 
ENDROOT
BRANCH   1   8
ATOM      3  C   UNL     1      23.196  40.463  45.554  0.00  0.00    +0.000 A 
ATOM      4  C   UNL     1      22.471  41.648  45.430  0.00  0.00    +0.000 A 
ATOM      5  C   UNL     1      22.965  39.410  44.667  0.00  0.00    +0.000 A 
ATOM      6  C   UNL     1      21.410  41.723  44.522  0.00  0.00    +0.000 A 
ATOM      7  C   UNL     1      21.889  39.477  43.776  0.00  0.00    +0.000 A 
ATOM      8  C   UNL     1      21.075  40.616  43.735  0.00  0.00    +0.000 A 
BRANCH   3   9
ATOM      9  O   UNL     1      24.118  40.393  46.577  0.00  0.00    +0.000 OA
BRANCH   9  12
ATOM     10 BR   UNL     1      26.841  41.309  47.674  0.00  0.00    +0.000 Br
ATOM     11  C   UNL     1      25.099  41.705  48.317  0.00  0.00    +0.000 A 
ATOM     12  C   UNL     1      23.952  41.217  47.677  0.00  0.00    +0.000 A 
ATOM     13  C   UNL     1      24.988  42.508  49.459  0.00  0.00    +0.000 A 
ATOM     14  C   UNL     1      22.694  41.619  48.152  0.00  0.00    +0.000 A 
ATOM     15  C   UNL     1      23.730  42.843  49.961  0.00  0.00    +0.000 A 
ATOM     16  C   UNL     1      22.583  42.407  49.301  0.00  0.00    +0.000 A 
ENDBRANCH   9  12
ENDBRANCH   3   9
ENDBRANCH   1   8
BRANCH   2  17
ATOM     17  N   UNL     1      18.118  40.823  44.893  0.00  0.00    +0.000 N 
ATOM     18  C   UNL     1      17.890  39.765  45.755  0.00  0.00    +0.000 C 
ATOM     19  O   UNL     1      17.962  38.581  45.438  0.00  0.00    +0.000 OA
ATOM     20  H   UNL     1      17.986  41.733  45.246  0.00  0.00    +0.000 HD
BRANCH  18  21
ATOM     21  C   UNL     1      17.403  40.191  47.133  0.00  0.00    +0.000 C 
BRANCH  21  22
ATOM     22  C   UNL     1      17.580  41.654  47.453  0.00  0.00    +0.000 A 
ATOM     23  C   UNL     1      18.766  42.082  48.077  0.00  0.00    +0.000 A 
ATOM     24  C   UNL     1      16.643  42.618  47.049  0.00  0.00    +0.000 A 
ATOM     25  C   UNL     1      19.000  43.441  48.303  0.00  0.00    +0.000 A 
ATOM     26  C   UNL     1      16.878  43.975  47.279  0.00  0.00    +0.000 A 
ATOM     27  C   UNL     1      18.054  44.375  47.900  0.00  0.00    +0.000 A 
ATOM     28  F   UNL     1      18.289  45.677  48.100  0.00  0.00    +0.000 F 
ENDBRANCH  21  22
ENDBRANCH  18  21
ENDBRANCH   2  17
BRANCH   2  29
ATOM     29  C   UNL     1      17.440  40.780  42.528  0.00  0.00    +0.000 C 
ATOM     30  O   UNL     1      17.439  41.525  41.566  0.00  0.00    +0.000 OA
ATOM     31  OXT UNL     1      16.440  39.911  42.801  0.00  0.00    +0.000 OA
ENDBRANCH   2  29
TORSDOF 7
ENDMDL
MODEL 7
REMARK VINA RESULT:      -5.7      3.273      7.068
REMARK  Name = 322322
REMARK  7 active torsions:
REMARK  status: ('A' for Active; 'I' for Inactive)
REMARK    1  A    between atoms: C_3  and  O_5
REMARK    2  A    between atoms: O_5  and  C_8
REMARK    3  A    between atoms: C_14  and  C_15
REMARK    4  A    between atoms: CA_16  and  N_17
REMARK    5  A    between atoms: CA_16  and  C_18
REMARK    6  A    between atoms: C_19  and  C_23
REMARK    7  A    between atoms: C_23  and  C_24
REMARK                            x       y       z     vdW  Elec       q    Type
REMARK                         _______ _______ _______ _____ _____    ______ ____
ROOT
ATOM      1  C   UNL     1      20.121  42.086  43.358  0.00  0.00    +0.000 C 
ATOM      2  CA  UNL     1      18.787  41.941  43.411  0.00  0.00    +0.000 C 
ENDROOT
BRANCH   1   8
ATOM      3  C   UNL     1      22.586  41.325  46.712  0.00  0.00    +0.000 A 
ATOM      4  C   UNL     1      21.927  42.550  46.611  0.00  0.00    +0.000 A 
ATOM      5  C   UNL     1      22.662  40.482  45.603  0.00  0.00    +0.000 A 
ATOM      6  C   UNL     1      21.212  42.861  45.450  0.00  0.00    +0.000 A 
ATOM      7  C   UNL     1      21.928  40.783  44.451  0.00  0.00    +0.000 A 
ATOM      8  C   UNL     1      21.159  41.952  44.390  0.00  0.00    +0.000 A 
BRANCH   3   9
ATOM      9  O   UNL     1      23.133  41.003  47.937  0.00  0.00    +0.000 OA
BRANCH   9  12
ATOM     10 BR   UNL     1      23.457  42.890  50.343  0.00  0.00    +0.000 Br
ATOM     11  C   UNL     1      24.793  42.158  49.211  0.00  0.00    +0.000 A 
ATOM     12  C   UNL     1      24.469  41.287  48.162  0.00  0.00    +0.000 A 
ATOM     13  C   UNL     1      26.126  42.511  49.455  0.00  0.00    +0.000 A 
ATOM     14  C   UNL     1      25.512  40.712  47.419  0.00  0.00    +0.000 A 
ATOM     15  C   UNL     1      27.147  41.985  48.664  0.00  0.00    +0.000 A 
ATOM     16  C   UNL     1      26.840  41.077  47.653  0.00  0.00    +0.000 A 
ENDBRANCH   9  12
ENDBRANCH   3   9
ENDBRANCH   1   8
BRANCH   2  17
ATOM     17  N   UNL     1      18.014  41.465  44.460  0.00  0.00    +0.000 N 
ATOM     18  C   UNL     1      17.245  42.252  45.298  0.00  0.00    +0.000 C 
ATOM     19  O   UNL     1      17.194  43.478  45.249  0.00  0.00    +0.000 OA
ATOM     20  H   UNL     1      18.014  40.494  44.621  0.00  0.00    +0.000 HD
BRANCH  18  21
ATOM     21  C   UNL     1      16.546  41.471  46.402  0.00  0.00    +0.000 C 
BRANCH  21  22
ATOM     22  C   UNL     1      16.519  39.975  46.213  0.00  0.00    +0.000 A 
ATOM     23  C   UNL     1      16.765  39.440  44.935  0.00  0.00    +0.000 A 
ATOM     24  C   UNL     1      16.364  39.095  47.295  0.00  0.00    +0.000 A 
ATOM     25  C   UNL     1      16.839  38.058  44.744  0.00  0.00    +0.000 A 
ATOM     26  C   UNL     1      16.435  37.714  47.102  0.00  0.00    +0.000 A 
ATOM     27  C   UNL     1      16.675  37.208  45.831  0.00  0.00    +0.000 A 
ATOM     28  F   UNL     1      16.765  35.885  45.650  0.00  0.00    +0.000 F 
ENDBRANCH  21  22
ENDBRANCH  18  21
ENDBRANCH   2  17
BRANCH   2  29
ATOM     29  C   UNL     1      18.056  42.392  42.181  0.00  0.00    +0.000 C 
ATOM     30  O   UNL     1      17.173  41.775  41.614  0.00  0.00    +0.000 OA
ATOM     31  OXT UNL     1      18.516  43.593  41.762  0.00  0.00    +0.000 OA
ENDBRANCH   2  29
TORSDOF 7
ENDMDL
MODEL 8
REMARK VINA RESULT:      -5.6      2.129      4.419
REMARK  Name = 322322
REMARK  7 active torsions:
REMARK  status: ('A' for Active; 'I' for Inactive)
REMARK    1  A    between atoms: C_3  and  O_5
REMARK    2  A    between atoms: O_5  and  C_8
REMARK    3  A    between atoms: C_14  and  C_15
REMARK    4  A    between atoms: CA_16  and  N_17
REMARK    5  A    between atoms: CA_16  and  C_18
REMARK    6  A    between atoms: C_19  and  C_23
REMARK    7  A    between atoms: C_23  and  C_24
REMARK                            x       y       z     vdW  Elec       q    Type
REMARK                         _______ _______ _______ _____ _____    ______ ____
ROOT
ATOM      1  C   UNL     1      21.936  42.187  48.561  0.00  0.00    +0.000 C 
ATOM      2  CA  UNL     1      23.039  41.571  48.107  0.00  0.00    +0.000 C 
ENDROOT
BRANCH   1   8
ATOM      3  C   UNL     1      18.289  42.991  46.572  0.00  0.00    +0.000 A 
ATOM      4  C   UNL     1      19.446  42.786  45.822  0.00  0.00    +0.000 A 
ATOM      5  C   UNL     1      18.380  43.211  47.947  0.00  0.00    +0.000 A 
ATOM      6  C   UNL     1      20.678  42.644  46.469  0.00  0.00    +0.000 A 
ATOM      7  C   UNL     1      19.608  43.046  48.596  0.00  0.00    +0.000 A 
ATOM      8  C   UNL     1      20.754  42.712  47.863  0.00  0.00    +0.000 A 
BRANCH   3   9
ATOM      9  O   UNL     1      17.086  42.958  45.896  0.00  0.00    +0.000 OA
BRANCH   9  12
ATOM     10 BR   UNL     1      16.526  40.110  46.913  0.00  0.00    +0.000 Br
ATOM     11  C   UNL     1      16.711  40.727  45.127  0.00  0.00    +0.000 A 
ATOM     12  C   UNL     1      16.945  42.077  44.837  0.00  0.00    +0.000 A 
ATOM     13  C   UNL     1      16.601  39.788  44.094  0.00  0.00    +0.000 A 
ATOM     14  C   UNL     1      16.984  42.481  43.494  0.00  0.00    +0.000 A 
ATOM     15  C   UNL     1      16.711  40.193  42.763  0.00  0.00    +0.000 A 
ATOM     16  C   UNL     1      16.891  41.540  42.464  0.00  0.00    +0.000 A 
ENDBRANCH   9  12
ENDBRANCH   3   9
ENDBRANCH   1   8
BRANCH   2  17
ATOM     17  N   UNL     1      23.305  41.118  46.823  0.00  0.00    +0.000 N 
ATOM     18  C   UNL     1      24.563  41.050  46.251  0.00  0.00    +0.000 C 
ATOM     19  O   UNL     1      25.596  41.434  46.793  0.00  0.00    +0.000 OA
ATOM     20  H   UNL     1      22.541  40.823  46.277  0.00  0.00    +0.000 HD
BRANCH  18  21
ATOM     21  C   UNL     1      24.555  40.570  44.807  0.00  0.00    +0.000 C 
BRANCH  21  22
ATOM     22  C   UNL     1      23.196  40.223  44.253  0.00  0.00    +0.000 A 
ATOM     23  C   UNL     1      22.678  38.932  44.462  0.00  0.00    +0.000 A 
ATOM     24  C   UNL     1      22.384  41.184  43.629  0.00  0.00    +0.000 A 
ATOM     25  C   UNL     1      21.385  38.607  44.042  0.00  0.00    +0.000 A 
ATOM     26  C   UNL     1      21.094  40.856  43.208  0.00  0.00    +0.000 A 
ATOM     27  C   UNL     1      20.605  39.574  43.421  0.00  0.00    +0.000 A 
ATOM     28  F   UNL     1      19.360  39.267  43.037  0.00  0.00    +0.000 F 
ENDBRANCH  21  22
ENDBRANCH  18  21
ENDBRANCH   2  17
BRANCH   2  29
ATOM     29  C   UNL     1      24.126  41.394  49.126  0.00  0.00    +0.000 C 
ATOM     30  O   UNL     1      24.552  40.329  49.532  0.00  0.00    +0.000 OA
ATOM     31  OXT UNL     1      24.579  42.593  49.559  0.00  0.00    +0.000 OA
ENDBRANCH   2  29
TORSDOF 7
ENDMDL
MODEL 9
REMARK VINA RESULT:      -5.1      1.697      2.466
REMARK  Name = 322322
REMARK  7 active torsions:
REMARK  status: ('A' for Active; 'I' for Inactive)
REMARK    1  A    between atoms: C_3  and  O_5
REMARK    2  A    between atoms: O_5  and  C_8
REMARK    3  A    between atoms: C_14  and  C_15
REMARK    4  A    between atoms: CA_16  and  N_17
REMARK    5  A    between atoms: CA_16  and  C_18
REMARK    6  A    between atoms: C_19  and  C_23
REMARK    7  A    between atoms: C_23  and  C_24
REMARK                            x       y       z     vdW  Elec       q    Type
REMARK                         _______ _______ _______ _____ _____    ______ ____
ROOT
ATOM      1  C   UNL     1      23.193  40.055  44.314  0.00  0.00    +0.000 C 
ATOM      2  CA  UNL     1      23.627  40.486  45.509  0.00  0.00    +0.000 C 
ENDROOT
BRANCH   1   8
ATOM      3  C   UNL     1      19.068  39.599  43.489  0.00  0.00    +0.000 A 
ATOM      4  C   UNL     1      19.846  38.468  43.735  0.00  0.00    +0.000 A 
ATOM      5  C   UNL     1      19.684  40.826  43.238  0.00  0.00    +0.000 A 
ATOM      6  C   UNL     1      21.231  38.595  43.884  0.00  0.00    +0.000 A 
ATOM      7  C   UNL     1      21.066  40.957  43.410  0.00  0.00    +0.000 A 
ATOM      8  C   UNL     1      21.839  39.850  43.784  0.00  0.00    +0.000 A 
BRANCH   3   9
ATOM      9  O   UNL     1      17.698  39.440  43.517  0.00  0.00    +0.000 OA
BRANCH   9  12
ATOM     10 BR   UNL     1      17.078  36.592  44.498  0.00  0.00    +0.000 Br
ATOM     11  C   UNL     1      16.672  38.254  45.320  0.00  0.00    +0.000 A 
ATOM     12  C   UNL     1      17.051  39.472  44.741  0.00  0.00    +0.000 A 
ATOM     13  C   UNL     1      15.979  38.232  46.537  0.00  0.00    +0.000 A 
ATOM     14  C   UNL     1      16.798  40.660  45.444  0.00  0.00    +0.000 A 
ATOM     15  C   UNL     1      15.672  39.426  47.191  0.00  0.00    +0.000 A 
ATOM     16  C   UNL     1      16.092  40.638  46.650  0.00  0.00    +0.000 A 
ENDBRANCH   9  12
ENDBRANCH   3   9
ENDBRANCH   1   8
BRANCH   2  17
ATOM     17  N   UNL     1      22.884  41.012  46.556  0.00  0.00    +0.000 N 
ATOM     18  C   UNL     1      23.376  41.869  47.525  0.00  0.00    +0.000 C 
ATOM     19  O   UNL     1      24.547  42.229  47.606  0.00  0.00    +0.000 OA
ATOM     20  H   UNL     1      21.936  40.754  46.616  0.00  0.00    +0.000 HD
BRANCH  18  21
ATOM     21  C   UNL     1      22.353  42.242  48.589  0.00  0.00    +0.000 C 
BRANCH  21  22
ATOM     22  C   UNL     1      21.015  42.697  48.063  0.00  0.00    +0.000 A 
ATOM     23  C   UNL     1      20.858  42.915  46.682  0.00  0.00    +0.000 A 
ATOM     24  C   UNL     1      19.891  42.806  48.897  0.00  0.00    +0.000 A 
ATOM     25  C   UNL     1      19.608  43.247  46.153  0.00  0.00    +0.000 A 
ATOM     26  C   UNL     1      18.644  43.141  48.366  0.00  0.00    +0.000 A 
ATOM     27  C   UNL     1      18.513  43.355  46.999  0.00  0.00    +0.000 A 
ATOM     28  F   UNL     1      17.312  43.655  46.488  0.00  0.00    +0.000 F 
ENDBRANCH  21  22
ENDBRANCH  18  21
ENDBRANCH   2  17
BRANCH   2  29
ATOM     29  C   UNL     1      25.103  40.335  45.735  0.00  0.00    +0.000 C 
ATOM     30  O   UNL     1      25.969  41.057  45.276  0.00  0.00    +0.000 OA
ATOM     31  OXT UNL     1      25.363  39.266  46.522  0.00  0.00    +0.000 OA
ENDBRANCH   2  29
TORSDOF 7
ENDMDL
