MODEL 1
REMARK VINA RESULT:      -8.1      0.000      0.000
REMARK  Name = 319853
REMARK  6 active torsions:
REMARK  status: ('A' for Active; 'I' for Inactive)
REMARK    1  A    between atoms: C_3  and  O_5
REMARK    2  A    between atoms: O_5  and  C_8
REMARK    3  A    between atoms: C_14  and  C_15
REMARK    4  A    between atoms: CA_16  and  N_17
REMARK    5  A    between atoms: CA_16  and  C_18
REMARK    6  A    between atoms: C_19  and  C_23
REMARK                            x       y       z     vdW  Elec       q    Type
REMARK                         _______ _______ _______ _____ _____    ______ ____
ROOT
ATOM      1  C   UNL     1      20.236  42.404  43.524  0.00  0.00    +0.000 C 
ATOM      2  CA  UNL     1      18.976  41.966  43.359  0.00  0.00    +0.000 C 
ENDROOT
BRANCH   1   8
ATOM      3  C   UNL     1      22.502  41.258  46.923  0.00  0.00    +0.000 A 
ATOM      4  C   UNL     1      21.893  42.512  46.903  0.00  0.00    +0.000 A 
ATOM      5  C   UNL     1      22.587  40.506  45.747  0.00  0.00    +0.000 A 
ATOM      6  C   UNL     1      21.229  42.944  45.749  0.00  0.00    +0.000 A 
ATOM      7  C   UNL     1      21.907  40.928  44.603  0.00  0.00    +0.000 A 
ATOM      8  C   UNL     1      21.183  42.127  44.614  0.00  0.00    +0.000 A 
BRANCH   3   9
ATOM      9  O   UNL     1      22.978  40.793  48.132  0.00  0.00    +0.000 OA
BRANCH   9  12
ATOM     10 BR   UNL     1      25.767  40.655  46.807  0.00  0.00    +0.000 Br
ATOM     11  C   UNL     1      25.225  41.599  48.360  0.00  0.00    +0.000 A 
ATOM     12  C   UNL     1      23.898  41.580  48.808  0.00  0.00    +0.000 A 
ATOM     13  C   UNL     1      26.196  42.328  49.059  0.00  0.00    +0.000 A 
ATOM     14  C   UNL     1      23.545  42.377  49.909  0.00  0.00    +0.000 A 
ATOM     15  C   UNL     1      25.845  43.055  50.197  0.00  0.00    +0.000 A 
ATOM     16  C   UNL     1      24.517  43.090  50.614  0.00  0.00    +0.000 A 
ENDBRANCH   9  12
ENDBRANCH   3   9
ENDBRANCH   1   8
BRANCH   2  17
ATOM     17  N   UNL     1      18.346  41.003  44.130  0.00  0.00    +0.000 N 
ATOM     18  C   UNL     1      18.623  39.655  43.963  0.00  0.00    +0.000 C 
ATOM     19  O   UNL     1      19.345  39.223  43.069  0.00  0.00    +0.000 OA
ATOM     20  H   UNL     1      17.689  41.280  44.809  0.00  0.00    +0.000 HD
BRANCH  18  21
ATOM     21  C   UNL     1      17.889  38.688  44.821  0.00  0.00    +0.000 A 
ATOM     22  C   UNL     1      17.164  39.210  45.903  0.00  0.00    +0.000 A 
ATOM     23  C   UNL     1      17.841  37.320  44.546  0.00  0.00    +0.000 A 
ATOM     24  C   UNL     1      16.372  38.375  46.691  0.00  0.00    +0.000 A 
ATOM     25  C   UNL     1      17.041  36.486  45.337  0.00  0.00    +0.000 A 
ATOM     26  C   UNL     1      16.304  37.014  46.400  0.00  0.00    +0.000 A 
ENDBRANCH  18  21
ENDBRANCH   2  17
BRANCH   2  27
ATOM     27  C   UNL     1      18.215  42.588  42.226  0.00  0.00    +0.000 C 
ATOM     28  O   UNL     1      18.455  43.674  41.726  0.00  0.00    +0.000 OA
ATOM     29  OXT UNL     1      17.203  41.787  41.818  0.00  0.00    +0.000 OA
ENDBRANCH   2  27
TORSDOF 6
ENDMDL
MODEL 2
REMARK VINA RESULT:      -7.3      3.251      7.715
REMARK  Name = 319853
REMARK  6 active torsions:
REMARK  status: ('A' for Active; 'I' for Inactive)
REMARK    1  A    between atoms: C_3  and  O_5
REMARK    2  A    between atoms: O_5  and  C_8
REMARK    3  A    between atoms: C_14  and  C_15
REMARK    4  A    between atoms: CA_16  and  N_17
REMARK    5  A    between atoms: CA_16  and  C_18
REMARK    6  A    between atoms: C_19  and  C_23
REMARK                            x       y       z     vdW  Elec       q    Type
REMARK                         _______ _______ _______ _____ _____    ______ ____
ROOT
ATOM      1  C   UNL     1      23.208  38.962  44.676  0.00  0.00    +0.000 C 
ATOM      2  CA  UNL     1      23.836  38.792  45.852  0.00  0.00    +0.000 C 
ENDROOT
BRANCH   1   8
ATOM      3  C   UNL     1      20.174  41.839  43.953  0.00  0.00    +0.000 A 
ATOM      4  C   UNL     1      20.206  40.676  43.184  0.00  0.00    +0.000 A 
ATOM      5  C   UNL     1      21.269  42.171  44.758  0.00  0.00    +0.000 A 
ATOM      6  C   UNL     1      21.260  39.768  43.341  0.00  0.00    +0.000 A 
ATOM      7  C   UNL     1      22.308  41.255  44.930  0.00  0.00    +0.000 A 
ATOM      8  C   UNL     1      22.283  40.026  44.259  0.00  0.00    +0.000 A 
BRANCH   3   9
ATOM      9  O   UNL     1      19.031  42.609  43.906  0.00  0.00    +0.000 OA
BRANCH   9  12
ATOM     10 BR   UNL     1      16.819  40.452  44.013  0.00  0.00    +0.000 Br
ATOM     11  C   UNL     1      17.204  41.834  45.253  0.00  0.00    +0.000 A 
ATOM     12  C   UNL     1      18.277  42.715  45.065  0.00  0.00    +0.000 A 
ATOM     13  C   UNL     1      16.379  41.956  46.380  0.00  0.00    +0.000 A 
ATOM     14  C   UNL     1      18.564  43.654  46.069  0.00  0.00    +0.000 A 
ATOM     15  C   UNL     1      16.632  42.944  47.332  0.00  0.00    +0.000 A 
ATOM     16  C   UNL     1      17.731  43.784  47.183  0.00  0.00    +0.000 A 
ENDBRANCH   9  12
ENDBRANCH   3   9
ENDBRANCH   1   8
BRANCH   2  17
ATOM     17  N   UNL     1      23.865  39.706  46.894  0.00  0.00    +0.000 N 
ATOM     18  C   UNL     1      24.861  40.666  46.980  0.00  0.00    +0.000 C 
ATOM     19  O   UNL     1      25.824  40.704  46.221  0.00  0.00    +0.000 OA
ATOM     20  H   UNL     1      23.165  39.673  47.586  0.00  0.00    +0.000 HD
BRANCH  18  21
ATOM     21  C   UNL     1      24.825  41.595  48.140  0.00  0.00    +0.000 A 
ATOM     22  C   UNL     1      23.580  41.819  48.747  0.00  0.00    +0.000 A 
ATOM     23  C   UNL     1      25.975  42.179  48.674  0.00  0.00    +0.000 A 
ATOM     24  C   UNL     1      23.486  42.599  49.898  0.00  0.00    +0.000 A 
ATOM     25  C   UNL     1      25.877  42.959  49.833  0.00  0.00    +0.000 A 
ATOM     26  C   UNL     1      24.638  43.161  50.446  0.00  0.00    +0.000 A 
ENDBRANCH  18  21
ENDBRANCH   2  17
BRANCH   2  27
ATOM     27  C   UNL     1      24.569  37.494  46.017  0.00  0.00    +0.000 C 
ATOM     28  O   UNL     1      25.596  37.186  45.436  0.00  0.00    +0.000 OA
ATOM     29  OXT UNL     1      23.940  36.685  46.901  0.00  0.00    +0.000 OA
ENDBRANCH   2  27
TORSDOF 6
ENDMDL
MODEL 3
REMARK VINA RESULT:      -6.5      1.543      2.164
REMARK  Name = 319853
REMARK  6 active torsions:
REMARK  status: ('A' for Active; 'I' for Inactive)
REMARK    1  A    between atoms: C_3  and  O_5
REMARK    2  A    between atoms: O_5  and  C_8
REMARK    3  A    between atoms: C_14  and  C_15
REMARK    4  A    between atoms: CA_16  and  N_17
REMARK    5  A    between atoms: CA_16  and  C_18
REMARK    6  A    between atoms: C_19  and  C_23
REMARK                            x       y       z     vdW  Elec       q    Type
REMARK                         _______ _______ _______ _____ _____    ______ ____
ROOT
ATOM      1  C   UNL     1      19.728  42.851  44.099  0.00  0.00    +0.000 C 
ATOM      2  CA  UNL     1      18.864  42.044  43.459  0.00  0.00    +0.000 C 
ENDROOT
BRANCH   1   8
ATOM      3  C   UNL     1      21.960  41.843  47.564  0.00  0.00    +0.000 A 
ATOM      4  C   UNL     1      20.660  41.357  47.427  0.00  0.00    +0.000 A 
ATOM      5  C   UNL     1      22.419  42.852  46.711  0.00  0.00    +0.000 A 
ATOM      6  C   UNL     1      19.877  41.765  46.341  0.00  0.00    +0.000 A 
ATOM      7  C   UNL     1      21.646  43.241  45.616  0.00  0.00    +0.000 A 
ATOM      8  C   UNL     1      20.390  42.663  45.399  0.00  0.00    +0.000 A 
BRANCH   3   9
ATOM      9  O   UNL     1      22.759  41.275  48.535  0.00  0.00    +0.000 OA
BRANCH   9  12
ATOM     10 BR   UNL     1      24.119  43.074  50.650  0.00  0.00    +0.000 Br
ATOM     11  C   UNL     1      24.899  42.130  49.201  0.00  0.00    +0.000 A 
ATOM     12  C   UNL     1      24.133  41.325  48.349  0.00  0.00    +0.000 A 
ATOM     13  C   UNL     1      26.280  42.257  49.000  0.00  0.00    +0.000 A 
ATOM     14  C   UNL     1      24.787  40.579  47.355  0.00  0.00    +0.000 A 
ATOM     15  C   UNL     1      26.905  41.568  47.960  0.00  0.00    +0.000 A 
ATOM     16  C   UNL     1      26.160  40.719  47.146  0.00  0.00    +0.000 A 
ENDBRANCH   9  12
ENDBRANCH   3   9
ENDBRANCH   1   8
BRANCH   2  17
ATOM     17  N   UNL     1      18.533  40.752  43.834  0.00  0.00    +0.000 N 
ATOM     18  C   UNL     1      17.391  40.489  44.574  0.00  0.00    +0.000 C 
ATOM     19  O   UNL     1      16.670  41.370  45.032  0.00  0.00    +0.000 OA
ATOM     20  H   UNL     1      19.120  40.007  43.570  0.00  0.00    +0.000 HD
BRANCH  18  21
ATOM     21  C   UNL     1      17.122  39.076  44.948  0.00  0.00    +0.000 A 
ATOM     22  C   UNL     1      17.771  38.078  44.204  0.00  0.00    +0.000 A 
ATOM     23  C   UNL     1      16.320  38.722  46.034  0.00  0.00    +0.000 A 
ATOM     24  C   UNL     1      17.644  36.736  44.560  0.00  0.00    +0.000 A 
ATOM     25  C   UNL     1      16.198  37.373  46.391  0.00  0.00    +0.000 A 
ATOM     26  C   UNL     1      16.864  36.386  45.660  0.00  0.00    +0.000 A 
ENDBRANCH  18  21
ENDBRANCH   2  17
BRANCH   2  27
ATOM     27  C   UNL     1      18.228  42.619  42.229  0.00  0.00    +0.000 C 
ATOM     28  O   UNL     1      18.489  43.706  41.741  0.00  0.00    +0.000 OA
ATOM     29  OXT UNL     1      17.303  41.774  41.715  0.00  0.00    +0.000 OA
ENDBRANCH   2  27
TORSDOF 6
ENDMDL
MODEL 4
REMARK VINA RESULT:      -6.5      2.785      7.201
REMARK  Name = 319853
REMARK  6 active torsions:
REMARK  status: ('A' for Active; 'I' for Inactive)
REMARK    1  A    between atoms: C_3  and  O_5
REMARK    2  A    between atoms: O_5  and  C_8
REMARK    3  A    between atoms: C_14  and  C_15
REMARK    4  A    between atoms: CA_16  and  N_17
REMARK    5  A    between atoms: CA_16  and  C_18
REMARK    6  A    between atoms: C_19  and  C_23
REMARK                            x       y       z     vdW  Elec       q    Type
REMARK                         _______ _______ _______ _____ _____    ______ ____
ROOT
ATOM      1  C   UNL     1      24.038  40.733  45.968  0.00  0.00    +0.000 C 
ATOM      2  CA  UNL     1      23.813  41.582  46.986  0.00  0.00    +0.000 C 
ENDROOT
BRANCH   1   8
ATOM      3  C   UNL     1      20.893  39.426  43.439  0.00  0.00    +0.000 A 
ATOM      4  C   UNL     1      21.635  38.480  44.145  0.00  0.00    +0.000 A 
ATOM      5  C   UNL     1      21.344  40.747  43.359  0.00  0.00    +0.000 A 
ATOM      6  C   UNL     1      22.739  38.888  44.902  0.00  0.00    +0.000 A 
ATOM      7  C   UNL     1      22.433  41.156  44.131  0.00  0.00    +0.000 A 
ATOM      8  C   UNL     1      23.106  40.237  44.945  0.00  0.00    +0.000 A 
BRANCH   3   9
ATOM      9  O   UNL     1      19.708  39.014  42.864  0.00  0.00    +0.000 OA
BRANCH   9  12
ATOM     10 BR   UNL     1      17.943  41.551  42.932  0.00  0.00    +0.000 Br
ATOM     11  C   UNL     1      17.727  39.917  43.871  0.00  0.00    +0.000 A 
ATOM     12  C   UNL     1      18.612  38.845  43.696  0.00  0.00    +0.000 A 
ATOM     13  C   UNL     1      16.647  39.805  44.756  0.00  0.00    +0.000 A 
ATOM     14  C   UNL     1      18.340  37.632  44.349  0.00  0.00    +0.000 A 
ATOM     15  C   UNL     1      16.434  38.617  45.457  0.00  0.00    +0.000 A 
ATOM     16  C   UNL     1      17.273  37.527  45.243  0.00  0.00    +0.000 A 
ENDBRANCH   9  12
ENDBRANCH   3   9
ENDBRANCH   1   8
BRANCH   2  17
ATOM     17  N   UNL     1      22.653  42.313  47.188  0.00  0.00    +0.000 N 
ATOM     18  C   UNL     1      21.440  41.686  47.425  0.00  0.00    +0.000 C 
ATOM     19  O   UNL     1      21.290  40.469  47.364  0.00  0.00    +0.000 OA
ATOM     20  H   UNL     1      22.692  43.296  47.163  0.00  0.00    +0.000 HD
BRANCH  18  21
ATOM     21  C   UNL     1      20.244  42.547  47.614  0.00  0.00    +0.000 A 
ATOM     22  C   UNL     1      19.626  43.053  46.460  0.00  0.00    +0.000 A 
ATOM     23  C   UNL     1      19.688  42.802  48.869  0.00  0.00    +0.000 A 
ATOM     24  C   UNL     1      18.444  43.786  46.555  0.00  0.00    +0.000 A 
ATOM     25  C   UNL     1      18.498  43.534  48.960  0.00  0.00    +0.000 A 
ATOM     26  C   UNL     1      17.875  44.017  47.806  0.00  0.00    +0.000 A 
ENDBRANCH  18  21
ENDBRANCH   2  17
BRANCH   2  27
ATOM     27  C   UNL     1      24.939  41.737  47.964  0.00  0.00    +0.000 C 
ATOM     28  O   UNL     1      26.112  41.501  47.733  0.00  0.00    +0.000 OA
ATOM     29  OXT UNL     1      24.488  42.175  49.164  0.00  0.00    +0.000 OA
ENDBRANCH   2  27
TORSDOF 6
ENDMDL
MODEL 5
REMARK VINA RESULT:      -6.2      2.941      8.052
REMARK  Name = 319853
REMARK  6 active torsions:
REMARK  status: ('A' for Active; 'I' for Inactive)
REMARK    1  A    between atoms: C_3  and  O_5
REMARK    2  A    between atoms: O_5  and  C_8
REMARK    3  A    between atoms: C_14  and  C_15
REMARK    4  A    between atoms: CA_16  and  N_17
REMARK    5  A    between atoms: CA_16  and  C_18
REMARK    6  A    between atoms: C_19  and  C_23
REMARK                            x       y       z     vdW  Elec       q    Type
REMARK                         _______ _______ _______ _____ _____    ______ ____
ROOT
ATOM      1  C   UNL     1      23.125  38.928  44.629  0.00  0.00    +0.000 C 
ATOM      2  CA  UNL     1      23.902  38.847  45.723  0.00  0.00    +0.000 C 
ENDROOT
BRANCH   1   8
ATOM      3  C   UNL     1      19.391  40.918  44.308  0.00  0.00    +0.000 A 
ATOM      4  C   UNL     1      19.802  40.073  43.279  0.00  0.00    +0.000 A 
ATOM      5  C   UNL     1      20.303  41.307  45.295  0.00  0.00    +0.000 A 
ATOM      6  C   UNL     1      21.075  39.492  43.323  0.00  0.00    +0.000 A 
ATOM      7  C   UNL     1      21.563  40.710  45.350  0.00  0.00    +0.000 A 
ATOM      8  C   UNL     1      21.937  39.762  44.390  0.00  0.00    +0.000 A 
BRANCH   3   9
ATOM      9  O   UNL     1      18.071  41.317  44.325  0.00  0.00    +0.000 OA
BRANCH   9  12
ATOM     10 BR   UNL     1      17.135  43.104  46.667  0.00  0.00    +0.000 Br
ATOM     11  C   UNL     1      16.713  41.291  46.302  0.00  0.00    +0.000 A 
ATOM     12  C   UNL     1      17.202  40.636  45.164  0.00  0.00    +0.000 A 
ATOM     13  C   UNL     1      15.887  40.613  47.208  0.00  0.00    +0.000 A 
ATOM     14  C   UNL     1      16.774  39.325  44.904  0.00  0.00    +0.000 A 
ATOM     15  C   UNL     1      15.532  39.283  46.975  0.00  0.00    +0.000 A 
ATOM     16  C   UNL     1      15.964  38.644  45.817  0.00  0.00    +0.000 A 
ENDBRANCH   9  12
ENDBRANCH   3   9
ENDBRANCH   1   8
BRANCH   2  17
ATOM     17  N   UNL     1      23.833  39.679  46.829  0.00  0.00    +0.000 N 
ATOM     18  C   UNL     1      24.738  40.715  47.006  0.00  0.00    +0.000 C 
ATOM     19  O   UNL     1      25.705  40.894  46.272  0.00  0.00    +0.000 OA
ATOM     20  H   UNL     1      23.129  39.532  47.501  0.00  0.00    +0.000 HD
BRANCH  18  21
ATOM     21  C   UNL     1      24.601  41.548  48.230  0.00  0.00    +0.000 A 
ATOM     22  C   UNL     1      25.774  42.105  48.763  0.00  0.00    +0.000 A 
ATOM     23  C   UNL     1      23.365  41.844  48.807  0.00  0.00    +0.000 A 
ATOM     24  C   UNL     1      25.710  42.976  49.850  0.00  0.00    +0.000 A 
ATOM     25  C   UNL     1      23.306  42.722  49.896  0.00  0.00    +0.000 A 
ATOM     26  C   UNL     1      24.474  43.291  50.409  0.00  0.00    +0.000 A 
ENDBRANCH  18  21
ENDBRANCH   2  17
BRANCH   2  27
ATOM     27  C   UNL     1      24.931  37.756  45.710  0.00  0.00    +0.000 C 
ATOM     28  O   UNL     1      26.040  37.839  45.212  0.00  0.00    +0.000 OA
ATOM     29  OXT UNL     1      24.470  36.640  46.323  0.00  0.00    +0.000 OA
ENDBRANCH   2  27
TORSDOF 6
ENDMDL
MODEL 6
REMARK VINA RESULT:      -6.2      2.454      3.836
REMARK  Name = 319853
REMARK  6 active torsions:
REMARK  status: ('A' for Active; 'I' for Inactive)
REMARK    1  A    between atoms: C_3  and  O_5
REMARK    2  A    between atoms: O_5  and  C_8
REMARK    3  A    between atoms: C_14  and  C_15
REMARK    4  A    between atoms: CA_16  and  N_17
REMARK    5  A    between atoms: CA_16  and  C_18
REMARK    6  A    between atoms: C_19  and  C_23
REMARK                            x       y       z     vdW  Elec       q    Type
REMARK                         _______ _______ _______ _____ _____    ______ ____
ROOT
ATOM      1  C   UNL     1      20.249  39.268  43.955  0.00  0.00    +0.000 C 
ATOM      2  CA  UNL     1      19.053  39.830  44.199  0.00  0.00    +0.000 C 
ENDROOT
BRANCH   1   8
ATOM      3  C   UNL     1      24.101  40.389  45.335  0.00  0.00    +0.000 A 
ATOM      4  C   UNL     1      23.026  41.252  45.544  0.00  0.00    +0.000 A 
ATOM      5  C   UNL     1      23.965  39.307  44.460  0.00  0.00    +0.000 A 
ATOM      6  C   UNL     1      21.772  40.943  45.004  0.00  0.00    +0.000 A 
ATOM      7  C   UNL     1      22.709  38.988  43.940  0.00  0.00    +0.000 A 
ATOM      8  C   UNL     1      21.596  39.778  44.250  0.00  0.00    +0.000 A 
BRANCH   3   9
ATOM      9  O   UNL     1      25.265  40.629  46.037  0.00  0.00    +0.000 OA
BRANCH   9  12
ATOM     10 BR   UNL     1      23.432  39.077  47.983  0.00  0.00    +0.000 Br
ATOM     11  C   UNL     1      24.331  40.726  48.244  0.00  0.00    +0.000 A 
ATOM     12  C   UNL     1      25.159  41.278  47.258  0.00  0.00    +0.000 A 
ATOM     13  C   UNL     1      24.148  41.389  49.464  0.00  0.00    +0.000 A 
ATOM     14  C   UNL     1      25.869  42.453  47.552  0.00  0.00    +0.000 A 
ATOM     15  C   UNL     1      24.802  42.597  49.713  0.00  0.00    +0.000 A 
ATOM     16  C   UNL     1      25.672  43.121  48.762  0.00  0.00    +0.000 A 
ENDBRANCH   9  12
ENDBRANCH   3   9
ENDBRANCH   1   8
BRANCH   2  17
ATOM     17  N   UNL     1      18.835  40.974  44.950  0.00  0.00    +0.000 N 
ATOM     18  C   UNL     1      18.187  40.916  46.174  0.00  0.00    +0.000 C 
ATOM     19  O   UNL     1      17.678  39.892  46.617  0.00  0.00    +0.000 OA
ATOM     20  H   UNL     1      19.144  41.844  44.608  0.00  0.00    +0.000 HD
BRANCH  18  21
ATOM     21  C   UNL     1      17.979  42.194  46.905  0.00  0.00    +0.000 A 
ATOM     22  C   UNL     1      18.981  42.592  47.804  0.00  0.00    +0.000 A 
ATOM     23  C   UNL     1      16.880  43.024  46.677  0.00  0.00    +0.000 A 
ATOM     24  C   UNL     1      18.901  43.825  48.450  0.00  0.00    +0.000 A 
ATOM     25  C   UNL     1      16.806  44.263  47.325  0.00  0.00    +0.000 A 
ATOM     26  C   UNL     1      17.817  44.664  48.201  0.00  0.00    +0.000 A 
ENDBRANCH  18  21
ENDBRANCH   2  17
BRANCH   2  27
ATOM     27  C   UNL     1      17.870  39.129  43.600  0.00  0.00    +0.000 C 
ATOM     28  O   UNL     1      16.961  39.670  42.995  0.00  0.00    +0.000 OA
ATOM     29  OXT UNL     1      17.928  37.794  43.823  0.00  0.00    +0.000 OA
ENDBRANCH   2  27
TORSDOF 6
ENDMDL
MODEL 7
REMARK VINA RESULT:      -6.2      2.270      3.736
REMARK  Name = 319853
REMARK  6 active torsions:
REMARK  status: ('A' for Active; 'I' for Inactive)
REMARK    1  A    between atoms: C_3  and  O_5
REMARK    2  A    between atoms: O_5  and  C_8
REMARK    3  A    between atoms: C_14  and  C_15
REMARK    4  A    between atoms: CA_16  and  N_17
REMARK    5  A    between atoms: CA_16  and  C_18
REMARK    6  A    between atoms: C_19  and  C_23
REMARK                            x       y       z     vdW  Elec       q    Type
REMARK                         _______ _______ _______ _____ _____    ______ ____
ROOT
ATOM      1  C   UNL     1      20.251  39.079  44.011  0.00  0.00    +0.000 C 
ATOM      2  CA  UNL     1      19.022  39.458  44.400  0.00  0.00    +0.000 C 
ENDROOT
BRANCH   1   8
ATOM      3  C   UNL     1      23.855  40.481  45.757  0.00  0.00    +0.000 A 
ATOM      4  C   UNL     1      22.861  41.398  45.421  0.00  0.00    +0.000 A 
ATOM      5  C   UNL     1      23.776  39.166  45.287  0.00  0.00    +0.000 A 
ATOM      6  C   UNL     1      21.711  40.963  44.751  0.00  0.00    +0.000 A 
ATOM      7  C   UNL     1      22.621  38.728  44.639  0.00  0.00    +0.000 A 
ATOM      8  C   UNL     1      21.561  39.614  44.411  0.00  0.00    +0.000 A 
BRANCH   3   9
ATOM      9  O   UNL     1      24.876  40.912  46.578  0.00  0.00    +0.000 OA
BRANCH   9  12
ATOM     10 BR   UNL     1      27.375  41.646  48.244  0.00  0.00    +0.000 Br
ATOM     11  C   UNL     1      25.544  41.945  48.637  0.00  0.00    +0.000 A 
ATOM     12  C   UNL     1      24.529  41.575  47.746  0.00  0.00    +0.000 A 
ATOM     13  C   UNL     1      25.224  42.555  49.857  0.00  0.00    +0.000 A 
ATOM     14  C   UNL     1      23.202  41.911  48.056  0.00  0.00    +0.000 A 
ATOM     15  C   UNL     1      23.893  42.815  50.186  0.00  0.00    +0.000 A 
ATOM     16  C   UNL     1      22.883  42.505  49.279  0.00  0.00    +0.000 A 
ENDBRANCH   9  12
ENDBRANCH   3   9
ENDBRANCH   1   8
BRANCH   2  17
ATOM     17  N   UNL     1      18.735  40.357  45.416  0.00  0.00    +0.000 N 
ATOM     18  C   UNL     1      18.394  41.671  45.137  0.00  0.00    +0.000 C 
ATOM     19  O   UNL     1      18.429  42.149  44.007  0.00  0.00    +0.000 OA
ATOM     20  H   UNL     1      18.775  40.056  46.352  0.00  0.00    +0.000 HD
BRANCH  18  21
ATOM     21  C   UNL     1      18.120  42.571  46.288  0.00  0.00    +0.000 A 
ATOM     22  C   UNL     1      19.115  42.680  47.271  0.00  0.00    +0.000 A 
ATOM     23  C   UNL     1      16.962  43.346  46.380  0.00  0.00    +0.000 A 
ATOM     24  C   UNL     1      18.968  43.579  48.327  0.00  0.00    +0.000 A 
ATOM     25  C   UNL     1      16.821  44.251  47.439  0.00  0.00    +0.000 A 
ATOM     26  C   UNL     1      17.825  44.371  48.404  0.00  0.00    +0.000 A 
ENDBRANCH  18  21
ENDBRANCH   2  17
BRANCH   2  27
ATOM     27  C   UNL     1      17.881  38.827  43.658  0.00  0.00    +0.000 C 
ATOM     28  O   UNL     1      17.058  39.427  42.988  0.00  0.00    +0.000 OA
ATOM     29  OXT UNL     1      17.869  37.484  43.828  0.00  0.00    +0.000 OA
ENDBRANCH   2  27
TORSDOF 6
ENDMDL
MODEL 8
REMARK VINA RESULT:      -5.4      2.853      7.227
REMARK  Name = 319853
REMARK  6 active torsions:
REMARK  status: ('A' for Active; 'I' for Inactive)
REMARK    1  A    between atoms: C_3  and  O_5
REMARK    2  A    between atoms: O_5  and  C_8
REMARK    3  A    between atoms: C_14  and  C_15
REMARK    4  A    between atoms: CA_16  and  N_17
REMARK    5  A    between atoms: CA_16  and  C_18
REMARK    6  A    between atoms: C_19  and  C_23
REMARK                            x       y       z     vdW  Elec       q    Type
REMARK                         _______ _______ _______ _____ _____    ______ ____
ROOT
ATOM      1  C   UNL     1      23.732  40.653  45.497  0.00  0.00    +0.000 C 
ATOM      2  CA  UNL     1      23.627  41.529  46.511  0.00  0.00    +0.000 C 
ENDROOT
BRANCH   1   8
ATOM      3  C   UNL     1      20.311  39.341  43.358  0.00  0.00    +0.000 A 
ATOM      4  C   UNL     1      21.074  38.408  44.058  0.00  0.00    +0.000 A 
ATOM      5  C   UNL     1      20.811  40.630  43.146  0.00  0.00    +0.000 A 
ATOM      6  C   UNL     1      22.261  38.809  44.683  0.00  0.00    +0.000 A 
ATOM      7  C   UNL     1      21.983  41.034  43.786  0.00  0.00    +0.000 A 
ATOM      8  C   UNL     1      22.688  40.138  44.599  0.00  0.00    +0.000 A 
BRANCH   3   9
ATOM      9  O   UNL     1      19.062  38.952  42.921  0.00  0.00    +0.000 OA
BRANCH   9  12
ATOM     10 BR   UNL     1      17.275  41.349  43.708  0.00  0.00    +0.000 Br
ATOM     11  C   UNL     1      17.260  39.574  44.377  0.00  0.00    +0.000 A 
ATOM     12  C   UNL     1      18.127  38.593  43.880  0.00  0.00    +0.000 A 
ATOM     13  C   UNL     1      16.349  39.263  45.395  0.00  0.00    +0.000 A 
ATOM     14  C   UNL     1      17.999  37.277  44.353  0.00  0.00    +0.000 A 
ATOM     15  C   UNL     1      16.286  37.966  45.909  0.00  0.00    +0.000 A 
ATOM     16  C   UNL     1      17.101  36.971  45.378  0.00  0.00    +0.000 A 
ENDBRANCH   9  12
ENDBRANCH   3   9
ENDBRANCH   1   8
BRANCH   2  17
ATOM     17  N   UNL     1      22.501  42.273  46.824  0.00  0.00    +0.000 N 
ATOM     18  C   UNL     1      21.315  41.659  47.197  0.00  0.00    +0.000 C 
ATOM     19  O   UNL     1      21.151  40.444  47.170  0.00  0.00    +0.000 OA
ATOM     20  H   UNL     1      22.543  43.255  46.781  0.00  0.00    +0.000 HD
BRANCH  18  21
ATOM     21  C   UNL     1      20.151  42.534  47.499  0.00  0.00    +0.000 A 
ATOM     22  C   UNL     1      19.709  42.579  48.830  0.00  0.00    +0.000 A 
ATOM     23  C   UNL     1      19.547  43.345  46.536  0.00  0.00    +0.000 A 
ATOM     24  C   UNL     1      18.687  43.451  49.204  0.00  0.00    +0.000 A 
ATOM     25  C   UNL     1      18.525  44.222  46.918  0.00  0.00    +0.000 A 
ATOM     26  C   UNL     1      18.103  44.280  48.249  0.00  0.00    +0.000 A 
ENDBRANCH  18  21
ENDBRANCH   2  17
BRANCH   2  27
ATOM     27  C   UNL     1      24.857  41.701  47.352  0.00  0.00    +0.000 C 
ATOM     28  O   UNL     1      24.941  42.404  48.344  0.00  0.00    +0.000 OA
ATOM     29  OXT UNL     1      25.889  40.973  46.865  0.00  0.00    +0.000 OA
ENDBRANCH   2  27
TORSDOF 6
ENDMDL
