MODEL 1
REMARK VINA RESULT:      -9.1      0.000      0.000
REMARK  Name = 323416
REMARK  7 active torsions:
REMARK  status: ('A' for Active; 'I' for Inactive)
REMARK    1  A    between atoms: C_3  and  O_5
REMARK    2  A    between atoms: O_5  and  C_8
REMARK    3  A    between atoms: C_14  and  C_15
REMARK    4  A    between atoms: CA_16  and  N_17
REMARK    5  A    between atoms: CA_16  and  C_18
REMARK    6  A    between atoms: C_19  and  C_23
REMARK    7  A    between atoms: C_23  and  C_24
REMARK                            x       y       z     vdW  Elec       q    Type
REMARK                         _______ _______ _______ _____ _____    ______ ____
ROOT
ATOM      1  C   UNL     1      23.121  40.141  44.338  0.00  0.00    +0.000 C 
ATOM      2  CA  UNL     1      23.773  40.472  45.465  0.00  0.00    +0.000 C 
ENDROOT
BRANCH   1   8
ATOM      3  C   UNL     1      18.988  40.863  43.796  0.00  0.00    +0.000 A 
ATOM      4  C   UNL     1      19.536  39.675  43.313  0.00  0.00    +0.000 A 
ATOM      5  C   UNL     1      19.825  41.908  44.195  0.00  0.00    +0.000 A 
ATOM      6  C   UNL     1      20.918  39.469  43.386  0.00  0.00    +0.000 A 
ATOM      7  C   UNL     1      21.202  41.694  44.284  0.00  0.00    +0.000 A 
ATOM      8  C   UNL     1      21.748  40.455  43.927  0.00  0.00    +0.000 A 
BRANCH   3   9
ATOM      9  O   UNL     1      17.616  40.939  43.902  0.00  0.00    +0.000 OA
BRANCH   9  12
ATOM     10 BR   UNL     1      16.881  42.693  46.331  0.00  0.00    +0.000 Br
ATOM     11  C   UNL     1      16.640  40.827  46.086  0.00  0.00    +0.000 A 
ATOM     12  C   UNL     1      17.005  40.188  44.896  0.00  0.00    +0.000 A 
ATOM     13  C   UNL     1      16.079  40.093  47.139  0.00  0.00    +0.000 A 
ATOM     14  C   UNL     1      16.718  38.821  44.746  0.00  0.00    +0.000 A 
ATOM     15  C   UNL     1      15.866  38.721  47.003  0.00  0.00    +0.000 A 
ATOM     16  C   UNL     1      16.173  38.087  45.803  0.00  0.00    +0.000 A 
ENDBRANCH   9  12
ENDBRANCH   3   9
ENDBRANCH   1   8
BRANCH   2  17
ATOM     17  N   UNL     1      23.361  41.366  46.440  0.00  0.00    +0.000 N 
ATOM     18  C   UNL     1      22.874  40.979  47.677  0.00  0.00    +0.000 C 
ATOM     19  O   UNL     1      22.716  39.814  48.029  0.00  0.00    +0.000 OA
ATOM     20  H   UNL     1      23.419  42.329  46.243  0.00  0.00    +0.000 HD
BRANCH  18  21
ATOM     21  C   UNL     1      22.428  42.130  48.558  0.00  0.00    +0.000 C 
BRANCH  21  22
ATOM     22  C   UNL     1      23.603  42.872  49.181  0.00  0.00    +0.000 C 
ATOM     23  C   UNL     1      24.974  42.351  48.749  0.00  0.00    +0.000 C 
ATOM     24  C   UNL     1      23.666  42.685  50.697  0.00  0.00    +0.000 C 
ATOM     25  C   UNL     1      25.931  42.844  49.832  0.00  0.00    +0.000 C 
ATOM     26  C   UNL     1      25.068  43.160  51.055  0.00  0.00    +0.000 C 
ENDBRANCH  21  22
ENDBRANCH  18  21
ENDBRANCH   2  17
BRANCH   2  27
ATOM     27  C   UNL     1      25.064  39.740  45.690  0.00  0.00    +0.000 C 
ATOM     28  O   UNL     1      26.153  40.261  45.853  0.00  0.00    +0.000 OA
ATOM     29  OXT UNL     1      24.875  38.400  45.670  0.00  0.00    +0.000 OA
ENDBRANCH   2  27
TORSDOF 7
ENDMDL
MODEL 2
REMARK VINA RESULT:      -9.0      2.161      3.345
REMARK  Name = 323416
REMARK  7 active torsions:
REMARK  status: ('A' for Active; 'I' for Inactive)
REMARK    1  A    between atoms: C_3  and  O_5
REMARK    2  A    between atoms: O_5  and  C_8
REMARK    3  A    between atoms: C_14  and  C_15
REMARK    4  A    between atoms: CA_16  and  N_17
REMARK    5  A    between atoms: CA_16  and  C_18
REMARK    6  A    between atoms: C_19  and  C_23
REMARK    7  A    between atoms: C_23  and  C_24
REMARK                            x       y       z     vdW  Elec       q    Type
REMARK                         _______ _______ _______ _____ _____    ______ ____
ROOT
ATOM      1  C   UNL     1      23.479  40.481  44.725  0.00  0.00    +0.000 C 
ATOM      2  CA  UNL     1      23.779  41.125  45.866  0.00  0.00    +0.000 C 
ENDROOT
BRANCH   1   8
ATOM      3  C   UNL     1      19.454  39.845  43.589  0.00  0.00    +0.000 A 
ATOM      4  C   UNL     1      20.291  38.743  43.761  0.00  0.00    +0.000 A 
ATOM      5  C   UNL     1      19.996  41.130  43.517  0.00  0.00    +0.000 A 
ATOM      6  C   UNL     1      21.649  38.939  44.029  0.00  0.00    +0.000 A 
ATOM      7  C   UNL     1      21.349  41.325  43.802  0.00  0.00    +0.000 A 
ATOM      8  C   UNL     1      22.171  40.233  44.110  0.00  0.00    +0.000 A 
BRANCH   3   9
ATOM      9  O   UNL     1      18.095  39.617  43.540  0.00  0.00    +0.000 OA
BRANCH   9  12
ATOM     10 BR   UNL     1      17.533  36.679  44.293  0.00  0.00    +0.000 Br
ATOM     11  C   UNL     1      17.047  38.264  45.216  0.00  0.00    +0.000 A 
ATOM     12  C   UNL     1      17.414  39.530  44.746  0.00  0.00    +0.000 A 
ATOM     13  C   UNL     1      16.302  38.137  46.395  0.00  0.00    +0.000 A 
ATOM     14  C   UNL     1      17.098  40.658  45.522  0.00  0.00    +0.000 A 
ATOM     15  C   UNL     1      15.934  39.272  47.119  0.00  0.00    +0.000 A 
ATOM     16  C   UNL     1      16.343  40.530  46.690  0.00  0.00    +0.000 A 
ENDBRANCH   9  12
ENDBRANCH   3   9
ENDBRANCH   1   8
BRANCH   2  17
ATOM     17  N   UNL     1      22.926  41.887  46.648  0.00  0.00    +0.000 N 
ATOM     18  C   UNL     1      21.930  41.347  47.442  0.00  0.00    +0.000 C 
ATOM     19  O   UNL     1      21.665  40.151  47.510  0.00  0.00    +0.000 OA
ATOM     20  H   UNL     1      23.036  42.865  46.638  0.00  0.00    +0.000 HD
BRANCH  18  21
ATOM     21  C   UNL     1      21.081  42.378  48.162  0.00  0.00    +0.000 C 
BRANCH  21  22
ATOM     22  C   UNL     1      19.693  42.514  47.552  0.00  0.00    +0.000 C 
ATOM     23  C   UNL     1      19.663  43.266  46.220  0.00  0.00    +0.000 C 
ATOM     24  C   UNL     1      18.765  43.375  48.411  0.00  0.00    +0.000 C 
ATOM     25  C   UNL     1      18.215  43.726  46.070  0.00  0.00    +0.000 C 
ATOM     26  C   UNL     1      17.608  43.694  47.474  0.00  0.00    +0.000 C 
ENDBRANCH  21  22
ENDBRANCH  18  21
ENDBRANCH   2  17
BRANCH   2  27
ATOM     27  C   UNL     1      25.189  40.940  46.347  0.00  0.00    +0.000 C 
ATOM     28  O   UNL     1      25.802  41.718  47.056  0.00  0.00    +0.000 OA
ATOM     29  OXT UNL     1      25.718  39.788  45.874  0.00  0.00    +0.000 OA
ENDBRANCH   2  27
TORSDOF 7
ENDMDL
MODEL 3
REMARK VINA RESULT:      -8.8      1.814      3.013
REMARK  Name = 323416
REMARK  7 active torsions:
REMARK  status: ('A' for Active; 'I' for Inactive)
REMARK    1  A    between atoms: C_3  and  O_5
REMARK    2  A    between atoms: O_5  and  C_8
REMARK    3  A    between atoms: C_14  and  C_15
REMARK    4  A    between atoms: CA_16  and  N_17
REMARK    5  A    between atoms: CA_16  and  C_18
REMARK    6  A    between atoms: C_19  and  C_23
REMARK    7  A    between atoms: C_23  and  C_24
REMARK                            x       y       z     vdW  Elec       q    Type
REMARK                         _______ _______ _______ _____ _____    ______ ____
ROOT
ATOM      1  C   UNL     1      23.783  40.527  44.848  0.00  0.00    +0.000 C 
ATOM      2  CA  UNL     1      24.017  41.121  46.031  0.00  0.00    +0.000 C 
ENDROOT
BRANCH   1   8
ATOM      3  C   UNL     1      19.832  39.938  43.458  0.00  0.00    +0.000 A 
ATOM      4  C   UNL     1      20.665  38.831  43.616  0.00  0.00    +0.000 A 
ATOM      5  C   UNL     1      20.368  41.227  43.486  0.00  0.00    +0.000 A 
ATOM      6  C   UNL     1      22.005  39.018  43.969  0.00  0.00    +0.000 A 
ATOM      7  C   UNL     1      21.702  41.412  43.856  0.00  0.00    +0.000 A 
ATOM      8  C   UNL     1      22.513  40.308  44.149  0.00  0.00    +0.000 A 
BRANCH   3   9
ATOM      9  O   UNL     1      18.479  39.708  43.321  0.00  0.00    +0.000 OA
BRANCH   9  12
ATOM     10 BR   UNL     1      16.897  42.284  43.933  0.00  0.00    +0.000 Br
ATOM     11  C   UNL     1      16.978  40.667  44.923  0.00  0.00    +0.000 A 
ATOM     12  C   UNL     1      17.729  39.572  44.481  0.00  0.00    +0.000 A 
ATOM     13  C   UNL     1      16.259  40.593  46.122  0.00  0.00    +0.000 A 
ATOM     14  C   UNL     1      17.676  38.375  45.214  0.00  0.00    +0.000 A 
ATOM     15  C   UNL     1      16.273  39.420  46.878  0.00  0.00    +0.000 A 
ATOM     16  C   UNL     1      16.971  38.307  46.418  0.00  0.00    +0.000 A 
ENDBRANCH   9  12
ENDBRANCH   3   9
ENDBRANCH   1   8
BRANCH   2  17
ATOM     17  N   UNL     1      23.120  41.850  46.795  0.00  0.00    +0.000 N 
ATOM     18  C   UNL     1      22.107  41.275  47.542  0.00  0.00    +0.000 C 
ATOM     19  O   UNL     1      21.866  40.072  47.578  0.00  0.00    +0.000 OA
ATOM     20  H   UNL     1      23.209  42.831  46.807  0.00  0.00    +0.000 HD
BRANCH  18  21
ATOM     21  C   UNL     1      21.211  42.274  48.249  0.00  0.00    +0.000 C 
BRANCH  21  22
ATOM     22  C   UNL     1      19.866  42.440  47.553  0.00  0.00    +0.000 C 
ATOM     23  C   UNL     1      19.899  43.367  46.337  0.00  0.00    +0.000 C 
ATOM     24  C   UNL     1      18.837  43.137  48.444  0.00  0.00    +0.000 C 
ATOM     25  C   UNL     1      18.445  43.788  46.135  0.00  0.00    +0.000 C 
ATOM     26  C   UNL     1      17.738  43.538  47.468  0.00  0.00    +0.000 C 
ENDBRANCH  21  22
ENDBRANCH  18  21
ENDBRANCH   2  17
BRANCH   2  27
ATOM     27  C   UNL     1      25.397  40.913  46.584  0.00  0.00    +0.000 C 
ATOM     28  O   UNL     1      25.925  41.598  47.442  0.00  0.00    +0.000 OA
ATOM     29  OXT UNL     1      26.007  39.862  45.989  0.00  0.00    +0.000 OA
ENDBRANCH   2  27
TORSDOF 7
ENDMDL
MODEL 4
REMARK VINA RESULT:      -8.5      2.563      7.878
REMARK  Name = 323416
REMARK  7 active torsions:
REMARK  status: ('A' for Active; 'I' for Inactive)
REMARK    1  A    between atoms: C_3  and  O_5
REMARK    2  A    between atoms: O_5  and  C_8
REMARK    3  A    between atoms: C_14  and  C_15
REMARK    4  A    between atoms: CA_16  and  N_17
REMARK    5  A    between atoms: CA_16  and  C_18
REMARK    6  A    between atoms: C_19  and  C_23
REMARK    7  A    between atoms: C_23  and  C_24
REMARK                            x       y       z     vdW  Elec       q    Type
REMARK                         _______ _______ _______ _____ _____    ______ ____
ROOT
ATOM      1  C   UNL     1      19.927  41.760  43.556  0.00  0.00    +0.000 C 
ATOM      2  CA  UNL     1      18.623  41.437  43.585  0.00  0.00    +0.000 C 
ENDROOT
BRANCH   1   8
ATOM      3  C   UNL     1      22.393  41.000  46.908  0.00  0.00    +0.000 A 
ATOM      4  C   UNL     1      21.707  42.211  46.834  0.00  0.00    +0.000 A 
ATOM      5  C   UNL     1      22.490  40.181  45.781  0.00  0.00    +0.000 A 
ATOM      6  C   UNL     1      20.975  42.525  45.684  0.00  0.00    +0.000 A 
ATOM      7  C   UNL     1      21.744  40.486  44.640  0.00  0.00    +0.000 A 
ATOM      8  C   UNL     1      20.943  41.635  44.607  0.00  0.00    +0.000 A 
BRANCH   3   9
ATOM      9  O   UNL     1      22.922  40.636  48.128  0.00  0.00    +0.000 OA
BRANCH   9  12
ATOM     10 BR   UNL     1      25.657  40.506  46.708  0.00  0.00    +0.000 Br
ATOM     11  C   UNL     1      25.140  41.536  48.215  0.00  0.00    +0.000 A 
ATOM     12  C   UNL     1      23.834  41.499  48.718  0.00  0.00    +0.000 A 
ATOM     13  C   UNL     1      26.108  42.346  48.822  0.00  0.00    +0.000 A 
ATOM     14  C   UNL     1      23.494  42.352  49.780  0.00  0.00    +0.000 A 
ATOM     15  C   UNL     1      25.774  43.135  49.923  0.00  0.00    +0.000 A 
ATOM     16  C   UNL     1      24.464  43.148  50.394  0.00  0.00    +0.000 A 
ENDBRANCH   9  12
ENDBRANCH   3   9
ENDBRANCH   1   8
BRANCH   2  17
ATOM     17  N   UNL     1      17.958  40.719  44.566  0.00  0.00    +0.000 N 
ATOM     18  C   UNL     1      17.262  41.308  45.606  0.00  0.00    +0.000 C 
ATOM     19  O   UNL     1      17.189  42.518  45.798  0.00  0.00    +0.000 OA
ATOM     20  H   UNL     1      17.983  39.736  44.519  0.00  0.00    +0.000 HD
BRANCH  18  21
ATOM     21  C   UNL     1      16.666  40.323  46.593  0.00  0.00    +0.000 C 
BRANCH  21  22
ATOM     22  C   UNL     1      17.124  38.894  46.333  0.00  0.00    +0.000 C 
ATOM     23  C   UNL     1      17.971  38.726  45.071  0.00  0.00    +0.000 C 
ATOM     24  C   UNL     1      15.952  37.954  46.044  0.00  0.00    +0.000 C 
ATOM     25  C   UNL     1      17.871  37.240  44.735  0.00  0.00    +0.000 C 
ATOM     26  C   UNL     1      16.623  36.722  45.453  0.00  0.00    +0.000 C 
ENDBRANCH  21  22
ENDBRANCH  18  21
ENDBRANCH   2  17
BRANCH   2  27
ATOM     27  C   UNL     1      17.812  41.969  42.439  0.00  0.00    +0.000 C 
ATOM     28  O   UNL     1      16.896  41.384  41.890  0.00  0.00    +0.000 OA
ATOM     29  OXT UNL     1      18.241  43.197  42.066  0.00  0.00    +0.000 OA
ENDBRANCH   2  27
TORSDOF 7
ENDMDL
MODEL 5
REMARK VINA RESULT:      -8.4      1.945      4.701
REMARK  Name = 323416
REMARK  7 active torsions:
REMARK  status: ('A' for Active; 'I' for Inactive)
REMARK    1  A    between atoms: C_3  and  O_5
REMARK    2  A    between atoms: O_5  and  C_8
REMARK    3  A    between atoms: C_14  and  C_15
REMARK    4  A    between atoms: CA_16  and  N_17
REMARK    5  A    between atoms: CA_16  and  C_18
REMARK    6  A    between atoms: C_19  and  C_23
REMARK    7  A    between atoms: C_23  and  C_24
REMARK                            x       y       z     vdW  Elec       q    Type
REMARK                         _______ _______ _______ _____ _____    ______ ____
ROOT
ATOM      1  C   UNL     1      22.294  42.193  48.283  0.00  0.00    +0.000 C 
ATOM      2  CA  UNL     1      23.396  41.778  47.634  0.00  0.00    +0.000 C 
ENDROOT
BRANCH   1   8
ATOM      3  C   UNL     1      18.362  42.707  46.811  0.00  0.00    +0.000 A 
ATOM      4  C   UNL     1      19.415  42.598  45.903  0.00  0.00    +0.000 A 
ATOM      5  C   UNL     1      18.625  42.924  48.165  0.00  0.00    +0.000 A 
ATOM      6  C   UNL     1      20.731  42.538  46.373  0.00  0.00    +0.000 A 
ATOM      7  C   UNL     1      19.938  42.845  48.634  0.00  0.00    +0.000 A 
ATOM      8  C   UNL     1      20.992  42.601  47.744  0.00  0.00    +0.000 A 
BRANCH   3   9
ATOM      9  O   UNL     1      17.080  42.549  46.327  0.00  0.00    +0.000 OA
BRANCH   9  12
ATOM     10 BR   UNL     1      16.574  39.562  46.908  0.00  0.00    +0.000 Br
ATOM     11  C   UNL     1      16.718  40.448  45.236  0.00  0.00    +0.000 A 
ATOM     12  C   UNL     1      16.920  41.831  45.151  0.00  0.00    +0.000 A 
ATOM     13  C   UNL     1      16.616  39.677  44.072  0.00  0.00    +0.000 A 
ATOM     14  C   UNL     1      16.929  42.437  43.884  0.00  0.00    +0.000 A 
ATOM     15  C   UNL     1      16.699  40.283  42.818  0.00  0.00    +0.000 A 
ATOM     16  C   UNL     1      16.843  41.664  42.724  0.00  0.00    +0.000 A 
ENDBRANCH   9  12
ENDBRANCH   3   9
ENDBRANCH   1   8
BRANCH   2  17
ATOM     17  N   UNL     1      23.505  41.448  46.293  0.00  0.00    +0.000 N 
ATOM     18  C   UNL     1      23.586  40.147  45.830  0.00  0.00    +0.000 C 
ATOM     19  O   UNL     1      23.611  39.152  46.548  0.00  0.00    +0.000 OA
ATOM     20  H   UNL     1      23.525  42.180  45.635  0.00  0.00    +0.000 HD
BRANCH  18  21
ATOM     21  C   UNL     1      23.760  40.031  44.327  0.00  0.00    +0.000 C 
BRANCH  21  22
ATOM     22  C   UNL     1      22.431  39.864  43.601  0.00  0.00    +0.000 C 
ATOM     23  C   UNL     1      21.722  41.179  43.279  0.00  0.00    +0.000 C 
ATOM     24  C   UNL     1      21.387  39.154  44.464  0.00  0.00    +0.000 C 
ATOM     25  C   UNL     1      20.263  40.785  43.056  0.00  0.00    +0.000 C 
ATOM     26  C   UNL     1      20.079  39.426  43.732  0.00  0.00    +0.000 C 
ENDBRANCH  21  22
ENDBRANCH  18  21
ENDBRANCH   2  17
BRANCH   2  27
ATOM     27  C   UNL     1      24.642  41.723  48.470  0.00  0.00    +0.000 C 
ATOM     28  O   UNL     1      25.731  41.331  48.090  0.00  0.00    +0.000 OA
ATOM     29  OXT UNL     1      24.402  42.151  49.731  0.00  0.00    +0.000 OA
ENDBRANCH   2  27
TORSDOF 7
ENDMDL
MODEL 6
REMARK VINA RESULT:      -8.4      2.605      7.338
REMARK  Name = 323416
REMARK  7 active torsions:
REMARK  status: ('A' for Active; 'I' for Inactive)
REMARK    1  A    between atoms: C_3  and  O_5
REMARK    2  A    between atoms: O_5  and  C_8
REMARK    3  A    between atoms: C_14  and  C_15
REMARK    4  A    between atoms: CA_16  and  N_17
REMARK    5  A    between atoms: CA_16  and  C_18
REMARK    6  A    between atoms: C_19  and  C_23
REMARK    7  A    between atoms: C_23  and  C_24
REMARK                            x       y       z     vdW  Elec       q    Type
REMARK                         _______ _______ _______ _____ _____    ______ ____
ROOT
ATOM      1  C   UNL     1      20.129  41.544  43.427  0.00  0.00    +0.000 C 
ATOM      2  CA  UNL     1      18.794  41.656  43.538  0.00  0.00    +0.000 C 
ENDROOT
BRANCH   1   8
ATOM      3  C   UNL     1      22.544  40.808  46.821  0.00  0.00    +0.000 A 
ATOM      4  C   UNL     1      22.047  42.094  46.610  0.00  0.00    +0.000 A 
ATOM      5  C   UNL     1      22.484  39.859  45.798  0.00  0.00    +0.000 A 
ATOM      6  C   UNL     1      21.339  42.380  45.439  0.00  0.00    +0.000 A 
ATOM      7  C   UNL     1      21.761  40.141  44.637  0.00  0.00    +0.000 A 
ATOM      8  C   UNL     1      21.143  41.387  44.475  0.00  0.00    +0.000 A 
BRANCH   3   9
ATOM      9  O   UNL     1      23.045  40.511  48.070  0.00  0.00    +0.000 OA
BRANCH   9  12
ATOM     10 BR   UNL     1      25.740  40.537  46.570  0.00  0.00    +0.000 Br
ATOM     11  C   UNL     1      25.214  41.526  48.102  0.00  0.00    +0.000 A 
ATOM     12  C   UNL     1      23.928  41.416  48.641  0.00  0.00    +0.000 A 
ATOM     13  C   UNL     1      26.156  42.381  48.688  0.00  0.00    +0.000 A 
ATOM     14  C   UNL     1      23.575  42.242  49.722  0.00  0.00    +0.000 A 
ATOM     15  C   UNL     1      25.813  43.142  49.806  0.00  0.00    +0.000 A 
ATOM     16  C   UNL     1      24.520  43.082  50.315  0.00  0.00    +0.000 A 
ENDBRANCH   9  12
ENDBRANCH   3   9
ENDBRANCH   1   8
BRANCH   2  17
ATOM     17  N   UNL     1      18.027  41.452  44.674  0.00  0.00    +0.000 N 
ATOM     18  C   UNL     1      17.354  40.273  44.942  0.00  0.00    +0.000 C 
ATOM     19  O   UNL     1      17.326  39.302  44.192  0.00  0.00    +0.000 OA
ATOM     20  H   UNL     1      17.960  42.186  45.327  0.00  0.00    +0.000 HD
BRANCH  18  21
ATOM     21  C   UNL     1      16.531  40.302  46.216  0.00  0.00    +0.000 C 
BRANCH  21  22
ATOM     22  C   UNL     1      16.974  41.406  47.167  0.00  0.00    +0.000 C 
ATOM     23  C   UNL     1      16.777  42.821  46.621  0.00  0.00    +0.000 C 
ATOM     24  C   UNL     1      18.482  41.381  47.419  0.00  0.00    +0.000 C 
ATOM     25  C   UNL     1      17.720  43.689  47.452  0.00  0.00    +0.000 C 
ATOM     26  C   UNL     1      18.758  42.739  48.051  0.00  0.00    +0.000 C 
ENDBRANCH  21  22
ENDBRANCH  18  21
ENDBRANCH   2  17
BRANCH   2  27
ATOM     27  C   UNL     1      18.087  42.099  42.290  0.00  0.00    +0.000 C 
ATOM     28  O   UNL     1      17.209  41.478  41.717  0.00  0.00    +0.000 OA
ATOM     29  OXT UNL     1      18.566  43.286  41.854  0.00  0.00    +0.000 OA
ENDBRANCH   2  27
TORSDOF 7
ENDMDL
MODEL 7
REMARK VINA RESULT:      -8.3      1.673      4.127
REMARK  Name = 323416
REMARK  7 active torsions:
REMARK  status: ('A' for Active; 'I' for Inactive)
REMARK    1  A    between atoms: C_3  and  O_5
REMARK    2  A    between atoms: O_5  and  C_8
REMARK    3  A    between atoms: C_14  and  C_15
REMARK    4  A    between atoms: CA_16  and  N_17
REMARK    5  A    between atoms: CA_16  and  C_18
REMARK    6  A    between atoms: C_19  and  C_23
REMARK    7  A    between atoms: C_23  and  C_24
REMARK                            x       y       z     vdW  Elec       q    Type
REMARK                         _______ _______ _______ _____ _____    ______ ____
ROOT
ATOM      1  C   UNL     1      23.308  42.310  48.181  0.00  0.00    +0.000 C 
ATOM      2  CA  UNL     1      24.433  41.659  47.841  0.00  0.00    +0.000 C 
ENDROOT
BRANCH   1   8
ATOM      3  C   UNL     1      19.776  41.864  45.895  0.00  0.00    +0.000 A 
ATOM      4  C   UNL     1      20.769  42.732  45.443  0.00  0.00    +0.000 A 
ATOM      5  C   UNL     1      19.818  41.373  47.202  0.00  0.00    +0.000 A 
ATOM      6  C   UNL     1      21.893  42.974  46.239  0.00  0.00    +0.000 A 
ATOM      7  C   UNL     1      20.949  41.601  47.988  0.00  0.00    +0.000 A 
ATOM      8  C   UNL     1      22.015  42.362  47.489  0.00  0.00    +0.000 A 
BRANCH   3   9
ATOM      9  O   UNL     1      18.797  41.488  45.000  0.00  0.00    +0.000 OA
BRANCH   9  12
ATOM     10 BR   UNL     1      16.597  42.644  46.827  0.00  0.00    +0.000 Br
ATOM     11  C   UNL     1      16.864  40.852  46.264  0.00  0.00    +0.000 A 
ATOM     12  C   UNL     1      17.907  40.501  45.399  0.00  0.00    +0.000 A 
ATOM     13  C   UNL     1      15.982  39.874  46.741  0.00  0.00    +0.000 A 
ATOM     14  C   UNL     1      17.996  39.173  44.951  0.00  0.00    +0.000 A 
ATOM     15  C   UNL     1      16.127  38.544  46.344  0.00  0.00    +0.000 A 
ATOM     16  C   UNL     1      17.125  38.196  45.439  0.00  0.00    +0.000 A 
ENDBRANCH   9  12
ENDBRANCH   3   9
ENDBRANCH   1   8
BRANCH   2  17
ATOM     17  N   UNL     1      24.585  40.710  46.843  0.00  0.00    +0.000 N 
ATOM     18  C   UNL     1      24.015  39.450  46.892  0.00  0.00    +0.000 C 
ATOM     19  O   UNL     1      23.354  39.021  47.833  0.00  0.00    +0.000 OA
ATOM     20  H   UNL     1      25.126  40.947  46.055  0.00  0.00    +0.000 HD
BRANCH  18  21
ATOM     21  C   UNL     1      24.367  38.561  45.714  0.00  0.00    +0.000 C 
BRANCH  21  22
ATOM     22  C   UNL     1      23.544  38.889  44.475  0.00  0.00    +0.000 C 
ATOM     23  C   UNL     1      23.529  40.373  44.106  0.00  0.00    +0.000 C 
ATOM     24  C   UNL     1      22.055  38.608  44.679  0.00  0.00    +0.000 C 
ATOM     25  C   UNL     1      22.295  40.537  43.221  0.00  0.00    +0.000 C 
ATOM     26  C   UNL     1      21.394  39.337  43.517  0.00  0.00    +0.000 C 
ENDBRANCH  21  22
ENDBRANCH  18  21
ENDBRANCH   2  17
BRANCH   2  27
ATOM     27  C   UNL     1      25.656  42.060  48.614  0.00  0.00    +0.000 C 
ATOM     28  O   UNL     1      26.786  41.651  48.411  0.00  0.00    +0.000 OA
ATOM     29  OXT UNL     1      25.346  42.933  49.600  0.00  0.00    +0.000 OA
ENDBRANCH   2  27
TORSDOF 7
ENDMDL
MODEL 8
REMARK VINA RESULT:      -8.1      1.421      2.101
REMARK  Name = 323416
REMARK  7 active torsions:
REMARK  status: ('A' for Active; 'I' for Inactive)
REMARK    1  A    between atoms: C_3  and  O_5
REMARK    2  A    between atoms: O_5  and  C_8
REMARK    3  A    between atoms: C_14  and  C_15
REMARK    4  A    between atoms: CA_16  and  N_17
REMARK    5  A    between atoms: CA_16  and  C_18
REMARK    6  A    between atoms: C_19  and  C_23
REMARK    7  A    between atoms: C_23  and  C_24
REMARK                            x       y       z     vdW  Elec       q    Type
REMARK                         _______ _______ _______ _____ _____    ______ ____
ROOT
ATOM      1  C   UNL     1      22.686  39.247  44.238  0.00  0.00    +0.000 C 
ATOM      2  CA  UNL     1      23.377  39.708  45.295  0.00  0.00    +0.000 C 
ENDROOT
BRANCH   1   8
ATOM      3  C   UNL     1      18.679  40.439  43.589  0.00  0.00    +0.000 A 
ATOM      4  C   UNL     1      18.960  39.087  43.785  0.00  0.00    +0.000 A 
ATOM      5  C   UNL     1      19.717  41.338  43.333  0.00  0.00    +0.000 A 
ATOM      6  C   UNL     1      20.288  38.663  43.891  0.00  0.00    +0.000 A 
ATOM      7  C   UNL     1      21.042  40.917  43.457  0.00  0.00    +0.000 A 
ATOM      8  C   UNL     1      21.332  39.586  43.788  0.00  0.00    +0.000 A 
BRANCH   3   9
ATOM      9  O   UNL     1      17.367  40.844  43.702  0.00  0.00    +0.000 OA
BRANCH   9  12
ATOM     10 BR   UNL     1      17.117  39.715  46.562  0.00  0.00    +0.000 Br
ATOM     11  C   UNL     1      16.898  41.501  45.957  0.00  0.00    +0.000 A 
ATOM     12  C   UNL     1      17.081  41.850  44.615  0.00  0.00    +0.000 A 
ATOM     13  C   UNL     1      16.545  42.476  46.899  0.00  0.00    +0.000 A 
ATOM     14  C   UNL     1      16.990  43.203  44.249  0.00  0.00    +0.000 A 
ATOM     15  C   UNL     1      16.388  43.806  46.508  0.00  0.00    +0.000 A 
ATOM     16  C   UNL     1      16.623  44.172  45.186  0.00  0.00    +0.000 A 
ENDBRANCH   9  12
ENDBRANCH   3   9
ENDBRANCH   1   8
BRANCH   2  17
ATOM     17  N   UNL     1      23.042  40.773  46.115  0.00  0.00    +0.000 N 
ATOM     18  C   UNL     1      22.808  40.649  47.473  0.00  0.00    +0.000 C 
ATOM     19  O   UNL     1      22.829  39.588  48.089  0.00  0.00    +0.000 OA
ATOM     20  H   UNL     1      22.968  41.667  45.708  0.00  0.00    +0.000 HD
BRANCH  18  21
ATOM     21  C   UNL     1      22.398  41.941  48.154  0.00  0.00    +0.000 C 
BRANCH  21  22
ATOM     22  C   UNL     1      23.589  42.698  48.725  0.00  0.00    +0.000 C 
ATOM     23  C   UNL     1      24.948  42.095  48.365  0.00  0.00    +0.000 C 
ATOM     24  C   UNL     1      23.627  42.649  50.253  0.00  0.00    +0.000 C 
ATOM     25  C   UNL     1      25.907  42.653  49.413  0.00  0.00    +0.000 C 
ATOM     26  C   UNL     1      25.040  43.107  50.588  0.00  0.00    +0.000 C 
ENDBRANCH  21  22
ENDBRANCH  18  21
ENDBRANCH   2  17
BRANCH   2  27
ATOM     27  C   UNL     1      24.618  38.932  45.629  0.00  0.00    +0.000 C 
ATOM     28  O   UNL     1      24.679  37.723  45.767  0.00  0.00    +0.000 OA
ATOM     29  OXT UNL     1      25.681  39.754  45.783  0.00  0.00    +0.000 OA
ENDBRANCH   2  27
TORSDOF 7
ENDMDL
MODEL 9
REMARK VINA RESULT:      -7.8      1.890      3.958
REMARK  Name = 323416
REMARK  7 active torsions:
REMARK  status: ('A' for Active; 'I' for Inactive)
REMARK    1  A    between atoms: C_3  and  O_5
REMARK    2  A    between atoms: O_5  and  C_8
REMARK    3  A    between atoms: C_14  and  C_15
REMARK    4  A    between atoms: CA_16  and  N_17
REMARK    5  A    between atoms: CA_16  and  C_18
REMARK    6  A    between atoms: C_19  and  C_23
REMARK    7  A    between atoms: C_23  and  C_24
REMARK                            x       y       z     vdW  Elec       q    Type
REMARK                         _______ _______ _______ _____ _____    ______ ____
ROOT
ATOM      1  C   UNL     1      22.235  42.387  48.648  0.00  0.00    +0.000 C 
ATOM      2  CA  UNL     1      23.494  42.093  49.015  0.00  0.00    +0.000 C 
ENDROOT
BRANCH   1   8
ATOM      3  C   UNL     1      19.597  41.455  45.475  0.00  0.00    +0.000 A 
ATOM      4  C   UNL     1      20.262  40.418  46.129  0.00  0.00    +0.000 A 
ATOM      5  C   UNL     1      20.000  42.778  45.671  0.00  0.00    +0.000 A 
ATOM      6  C   UNL     1      21.219  40.715  47.105  0.00  0.00    +0.000 A 
ATOM      7  C   UNL     1      20.943  43.073  46.658  0.00  0.00    +0.000 A 
ATOM      8  C   UNL     1      21.518  42.045  47.415  0.00  0.00    +0.000 A 
BRANCH   3   9
ATOM      9  O   UNL     1      18.519  41.126  44.681  0.00  0.00    +0.000 OA
BRANCH   9  12
ATOM     10 BR   UNL     1      16.614  42.211  46.851  0.00  0.00    +0.000 Br
ATOM     11  C   UNL     1      16.755  40.452  46.155  0.00  0.00    +0.000 A 
ATOM     12  C   UNL     1      17.663  40.134  45.138  0.00  0.00    +0.000 A 
ATOM     13  C   UNL     1      15.918  39.464  46.689  0.00  0.00    +0.000 A 
ATOM     14  C   UNL     1      17.655  38.834  44.606  0.00  0.00    +0.000 A 
ATOM     15  C   UNL     1      15.972  38.158  46.200  0.00  0.00    +0.000 A 
ATOM     16  C   UNL     1      16.831  37.846  45.150  0.00  0.00    +0.000 A 
ENDBRANCH   9  12
ENDBRANCH   3   9
ENDBRANCH   1   8
BRANCH   2  17
ATOM     17  N   UNL     1      24.367  41.217  48.390  0.00  0.00    +0.000 N 
ATOM     18  C   UNL     1      25.453  41.627  47.637  0.00  0.00    +0.000 C 
ATOM     19  O   UNL     1      25.739  42.798  47.407  0.00  0.00    +0.000 OA
ATOM     20  H   UNL     1      24.205  40.251  48.487  0.00  0.00    +0.000 HD
BRANCH  18  21
ATOM     21  C   UNL     1      26.232  40.493  46.998  0.00  0.00    +0.000 C 
BRANCH  21  22
ATOM     22  C   UNL     1      25.453  39.814  45.879  0.00  0.00    +0.000 C 
ATOM     23  C   UNL     1      24.536  40.752  45.094  0.00  0.00    +0.000 C 
ATOM     24  C   UNL     1      24.456  38.783  46.411  0.00  0.00    +0.000 C 
ATOM     25  C   UNL     1      23.519  39.828  44.427  0.00  0.00    +0.000 C 
ATOM     26  C   UNL     1      23.548  38.519  45.217  0.00  0.00    +0.000 C 
ENDBRANCH  21  22
ENDBRANCH  18  21
ENDBRANCH   2  17
BRANCH   2  27
ATOM     27  C   UNL     1      24.000  42.848  50.210  0.00  0.00    +0.000 C 
ATOM     28  O   UNL     1      24.428  43.989  50.195  0.00  0.00    +0.000 OA
ATOM     29  OXT UNL     1      23.943  42.089  51.328  0.00  0.00    +0.000 OA
ENDBRANCH   2  27
TORSDOF 7
ENDMDL
