MODEL 1
REMARK VINA RESULT:      -4.8      0.000      0.000
REMARK  Name = 324059
REMARK  8 active torsions:
REMARK  status: ('A' for Active; 'I' for Inactive)
REMARK    1  A    between atoms: C_3  and  O_5
REMARK    2  A    between atoms: O_5  and  C_8
REMARK    3  A    between atoms: C_14  and  C_15
REMARK    4  A    between atoms: C_16  and  N_17
REMARK    5  A    between atoms: C_16  and  C_18
REMARK    6  A    between atoms: C_19  and  C_23
REMARK    7  A    between atoms: N_21  and  C_24
REMARK    8  A    between atoms: C_24  and  C_27
REMARK                            x       y       z     vdW  Elec       q    Type
REMARK                         _______ _______ _______ _____ _____    ______ ____
ROOT
ATOM      1  C   UNL     1      23.382  40.391  44.071  0.00  0.00    +0.000 C 
ATOM      2  C   UNL     1      24.371  41.014  44.741  0.00  0.00    +0.000 C 
ENDROOT
BRANCH   1   8
ATOM      3  C   UNL     1      19.245  39.949  45.016  0.00  0.00    +0.000 A 
ATOM      4  C   UNL     1      20.132  40.390  45.999  0.00  0.00    +0.000 A 
ATOM      5  C   UNL     1      19.750  39.413  43.827  0.00  0.00    +0.000 A 
ATOM      6  C   UNL     1      21.509  40.436  45.729  0.00  0.00    +0.000 A 
ATOM      7  C   UNL     1      21.121  39.486  43.549  0.00  0.00    +0.000 A 
ATOM      8  C   UNL     1      22.007  40.040  44.481  0.00  0.00    +0.000 A 
BRANCH   3   9
ATOM      9  O   UNL     1      17.892  40.081  45.255  0.00  0.00    +0.000 OA
BRANCH   9  12
ATOM     10 BR   UNL     1      17.099  41.307  42.515  0.00  0.00    +0.000 Br
ATOM     11  C   UNL     1      17.013  42.079  44.246  0.00  0.00    +0.000 A 
ATOM     12  C   UNL     1      17.378  41.363  45.394  0.00  0.00    +0.000 A 
ATOM     13  C   UNL     1      16.558  43.402  44.351  0.00  0.00    +0.000 A 
ATOM     14  C   UNL     1      17.182  41.961  46.650  0.00  0.00    +0.000 A 
ATOM     15  C   UNL     1      16.442  44.009  45.601  0.00  0.00    +0.000 A 
ATOM     16  C   UNL     1      16.741  43.282  46.751  0.00  0.00    +0.000 A 
ENDBRANCH   9  12
ENDBRANCH   3   9
ENDBRANCH   1   8
BRANCH   2  17
ATOM     17  N   UNL     1      24.252  41.586  46.000  0.00  0.00    +0.000 N 
ATOM     18  C   UNL     1      24.850  41.014  47.105  0.00  0.00    +0.000 C 
ATOM     19  O   UNL     1      25.426  39.925  47.091  0.00  0.00    +0.000 OA
ATOM     20  H   UNL     1      23.732  42.416  46.107  0.00  0.00    +0.000 HD
BRANCH  18  21
ATOM     21  C   UNL     1      24.677  41.696  48.411  0.00  0.00    +0.000 A 
ATOM     22  C   UNL     1      25.826  42.229  49.014  0.00  0.00    +0.000 A 
ATOM     23  C   UNL     1      23.422  41.920  48.985  0.00  0.00    +0.000 A 
ATOM     24  C   UNL     1      25.723  43.008  50.165  0.00  0.00    +0.000 A 
ATOM     25  C   UNL     1      23.323  42.709  50.136  0.00  0.00    +0.000 A 
ATOM     26  C   UNL     1      24.469  43.259  50.717  0.00  0.00    +0.000 A 
ENDBRANCH  18  21
ENDBRANCH   2  17
BRANCH   2  27
ATOM     27  C   UNL     1      25.724  41.056  44.051  0.00  0.00    +0.000 C 
ATOM     28  O   UNL     1      26.640  40.300  44.357  0.00  0.00    +0.000 OA
ATOM     29  N   UNL     1      25.818  42.001  43.049  0.00  0.00    +0.000 N 
ATOM     30  H   UNL     1      25.057  42.602  42.884  0.00  0.00    +0.000 HD
BRANCH  29  31
ATOM     31  C   UNL     1      27.011  42.127  42.235  0.00  0.00    +0.000 C 
BRANCH  31  32
ATOM     32  C   UNL     1      27.121  43.470  41.550  0.00  0.00    +0.000 A 
ATOM     33  C   UNL     1      26.484  43.712  40.325  0.00  0.00    +0.000 A 
ATOM     34  C   UNL     1      27.857  44.507  42.142  0.00  0.00    +0.000 A 
ATOM     35  C   UNL     1      26.574  44.966  39.711  0.00  0.00    +0.000 A 
ATOM     36  C   UNL     1      27.945  45.760  41.529  0.00  0.00    +0.000 A 
ATOM     37  C   UNL     1      27.304  45.989  40.314  0.00  0.00    +0.000 A 
ENDBRANCH  31  32
ENDBRANCH  29  31
ENDBRANCH   2  27
TORSDOF 8
ENDMDL
MODEL 2
REMARK VINA RESULT:      -4.2      1.450      2.096
REMARK  Name = 324059
REMARK  8 active torsions:
REMARK  status: ('A' for Active; 'I' for Inactive)
REMARK    1  A    between atoms: C_3  and  O_5
REMARK    2  A    between atoms: O_5  and  C_8
REMARK    3  A    between atoms: C_14  and  C_15
REMARK    4  A    between atoms: C_16  and  N_17
REMARK    5  A    between atoms: C_16  and  C_18
REMARK    6  A    between atoms: C_19  and  C_23
REMARK    7  A    between atoms: N_21  and  C_24
REMARK    8  A    between atoms: C_24  and  C_27
REMARK                            x       y       z     vdW  Elec       q    Type
REMARK                         _______ _______ _______ _____ _____    ______ ____
ROOT
ATOM      1  C   UNL     1      23.446  40.736  43.846  0.00  0.00    +0.000 C 
ATOM      2  C   UNL     1      24.449  41.221  44.602  0.00  0.00    +0.000 C 
ENDROOT
BRANCH   1   8
ATOM      3  C   UNL     1      19.207  40.398  44.191  0.00  0.00    +0.000 A 
ATOM      4  C   UNL     1      19.871  41.430  44.855  0.00  0.00    +0.000 A 
ATOM      5  C   UNL     1      19.948  39.346  43.642  0.00  0.00    +0.000 A 
ATOM      6  C   UNL     1      21.273  41.486  44.835  0.00  0.00    +0.000 A 
ATOM      7  C   UNL     1      21.346  39.419  43.599  0.00  0.00    +0.000 A 
ATOM      8  C   UNL     1      22.019  40.513  44.156  0.00  0.00    +0.000 A 
BRANCH   3   9
ATOM      9  O   UNL     1      17.832  40.472  44.086  0.00  0.00    +0.000 OA
BRANCH   9  12
ATOM     10 BR   UNL     1      16.834  42.481  46.233  0.00  0.00    +0.000 Br
ATOM     11  C   UNL     1      16.580  40.603  46.135  0.00  0.00    +0.000 A 
ATOM     12  C   UNL     1      17.071  39.846  45.063  0.00  0.00    +0.000 A 
ATOM     13  C   UNL     1      15.869  39.984  47.174  0.00  0.00    +0.000 A 
ATOM     14  C   UNL     1      16.748  38.480  45.002  0.00  0.00    +0.000 A 
ATOM     15  C   UNL     1      15.623  38.612  47.137  0.00  0.00    +0.000 A 
ATOM     16  C   UNL     1      16.051  37.863  46.043  0.00  0.00    +0.000 A 
ENDBRANCH   9  12
ENDBRANCH   3   9
ENDBRANCH   1   8
BRANCH   2  17
ATOM     17  N   UNL     1      24.309  41.746  45.880  0.00  0.00    +0.000 N 
ATOM     18  C   UNL     1      24.782  41.070  46.986  0.00  0.00    +0.000 C 
ATOM     19  O   UNL     1      25.252  39.930  46.950  0.00  0.00    +0.000 OA
ATOM     20  H   UNL     1      23.866  42.617  45.998  0.00  0.00    +0.000 HD
BRANCH  18  21
ATOM     21  C   UNL     1      24.598  41.707  48.313  0.00  0.00    +0.000 A 
ATOM     22  C   UNL     1      25.748  42.173  48.967  0.00  0.00    +0.000 A 
ATOM     23  C   UNL     1      23.336  41.955  48.862  0.00  0.00    +0.000 A 
ATOM     24  C   UNL     1      25.640  42.910  50.145  0.00  0.00    +0.000 A 
ATOM     25  C   UNL     1      23.233  42.702  50.040  0.00  0.00    +0.000 A 
ATOM     26  C   UNL     1      24.381  43.187  50.673  0.00  0.00    +0.000 A 
ENDBRANCH  18  21
ENDBRANCH   2  17
BRANCH   2  27
ATOM     27  C   UNL     1      25.839  41.151  43.995  0.00  0.00    +0.000 C 
ATOM     28  O   UNL     1      26.697  40.377  44.407  0.00  0.00    +0.000 OA
ATOM     29  N   UNL     1      26.040  42.018  42.940  0.00  0.00    +0.000 N 
ATOM     30  H   UNL     1      25.321  42.642  42.689  0.00  0.00    +0.000 HD
BRANCH  29  31
ATOM     31  C   UNL     1      27.283  42.031  42.194  0.00  0.00    +0.000 C 
BRANCH  31  32
ATOM     32  C   UNL     1      27.468  43.286  41.373  0.00  0.00    +0.000 A 
ATOM     33  C   UNL     1      27.755  44.516  41.985  0.00  0.00    +0.000 A 
ATOM     34  C   UNL     1      27.368  43.238  39.975  0.00  0.00    +0.000 A 
ATOM     35  C   UNL     1      27.946  45.667  41.213  0.00  0.00    +0.000 A 
ATOM     36  C   UNL     1      27.560  44.389  39.205  0.00  0.00    +0.000 A 
ATOM     37  C   UNL     1      27.850  45.603  39.824  0.00  0.00    +0.000 A 
ENDBRANCH  31  32
ENDBRANCH  29  31
ENDBRANCH   2  27
TORSDOF 8
ENDMDL
MODEL 3
REMARK VINA RESULT:      -2.3      2.769      4.345
REMARK  Name = 324059
REMARK  8 active torsions:
REMARK  status: ('A' for Active; 'I' for Inactive)
REMARK    1  A    between atoms: C_3  and  O_5
REMARK    2  A    between atoms: O_5  and  C_8
REMARK    3  A    between atoms: C_14  and  C_15
REMARK    4  A    between atoms: C_16  and  N_17
REMARK    5  A    between atoms: C_16  and  C_18
REMARK    6  A    between atoms: C_19  and  C_23
REMARK    7  A    between atoms: N_21  and  C_24
REMARK    8  A    between atoms: C_24  and  C_27
REMARK                            x       y       z     vdW  Elec       q    Type
REMARK                         _______ _______ _______ _____ _____    ______ ____
ROOT
ATOM      1  C   UNL     1      23.669  40.739  45.267  0.00  0.00    +0.000 C 
ATOM      2  C   UNL     1      23.623  41.475  46.394  0.00  0.00    +0.000 C 
ENDROOT
BRANCH   1   8
ATOM      3  C   UNL     1      20.161  39.145  43.436  0.00  0.00    +0.000 A 
ATOM      4  C   UNL     1      20.877  38.367  44.346  0.00  0.00    +0.000 A 
ATOM      5  C   UNL     1      20.734  40.321  42.940  0.00  0.00    +0.000 A 
ATOM      6  C   UNL     1      22.088  38.841  44.872  0.00  0.00    +0.000 A 
ATOM      7  C   UNL     1      21.929  40.806  43.486  0.00  0.00    +0.000 A 
ATOM      8  C   UNL     1      22.594  40.090  44.490  0.00  0.00    +0.000 A 
BRANCH   3   9
ATOM      9  O   UNL     1      18.896  38.727  43.076  0.00  0.00    +0.000 OA
BRANCH   9  12
ATOM     10 BR   UNL     1      17.421  41.378  43.738  0.00  0.00    +0.000 Br
ATOM     11  C   UNL     1      17.232  39.667  44.536  0.00  0.00    +0.000 A 
ATOM     12  C   UNL     1      17.956  38.556  44.083  0.00  0.00    +0.000 A 
ATOM     13  C   UNL     1      16.328  39.539  45.601  0.00  0.00    +0.000 A 
ATOM     14  C   UNL     1      17.681  37.300  44.648  0.00  0.00    +0.000 A 
ATOM     15  C   UNL     1      16.123  38.298  46.203  0.00  0.00    +0.000 A 
ATOM     16  C   UNL     1      16.790  37.176  45.716  0.00  0.00    +0.000 A 
ENDBRANCH   9  12
ENDBRANCH   3   9
ENDBRANCH   1   8
BRANCH   2  17
ATOM     17  N   UNL     1      22.464  41.891  47.034  0.00  0.00    +0.000 N 
ATOM     18  C   UNL     1      21.508  42.634  46.372  0.00  0.00    +0.000 C 
ATOM     19  O   UNL     1      21.646  43.073  45.228  0.00  0.00    +0.000 OA
ATOM     20  H   UNL     1      22.321  41.651  47.978  0.00  0.00    +0.000 HD
BRANCH  18  21
ATOM     21  C   UNL     1      20.296  43.030  47.130  0.00  0.00    +0.000 A 
ATOM     22  C   UNL     1      19.233  43.583  46.401  0.00  0.00    +0.000 A 
ATOM     23  C   UNL     1      20.141  42.768  48.495  0.00  0.00    +0.000 A 
ATOM     24  C   UNL     1      18.012  43.843  47.020  0.00  0.00    +0.000 A 
ATOM     25  C   UNL     1      18.911  43.024  49.110  0.00  0.00    +0.000 A 
ATOM     26  C   UNL     1      17.847  43.549  48.371  0.00  0.00    +0.000 A 
ENDBRANCH  18  21
ENDBRANCH   2  17
BRANCH   2  27
ATOM     27  C   UNL     1      24.962  41.844  47.008  0.00  0.00    +0.000 C 
ATOM     28  O   UNL     1      25.584  41.078  47.737  0.00  0.00    +0.000 OA
ATOM     29  N   UNL     1      25.417  43.100  46.661  0.00  0.00    +0.000 N 
ATOM     30  H   UNL     1      24.848  43.680  46.105  0.00  0.00    +0.000 HD
BRANCH  29  31
ATOM     31  C   UNL     1      26.712  43.586  47.095  0.00  0.00    +0.000 C 
BRANCH  31  32
ATOM     32  C   UNL     1      27.107  44.888  46.438  0.00  0.00    +0.000 A 
ATOM     33  C   UNL     1      27.604  44.917  45.127  0.00  0.00    +0.000 A 
ATOM     34  C   UNL     1      26.968  46.100  47.131  0.00  0.00    +0.000 A 
ATOM     35  C   UNL     1      27.945  46.131  44.521  0.00  0.00    +0.000 A 
ATOM     36  C   UNL     1      27.307  47.313  46.524  0.00  0.00    +0.000 A 
ATOM     37  C   UNL     1      27.796  47.328  45.219  0.00  0.00    +0.000 A 
ENDBRANCH  31  32
ENDBRANCH  29  31
ENDBRANCH   2  27
TORSDOF 8
ENDMDL
