MODEL 1
REMARK VINA RESULT:      -8.0      0.000      0.000
REMARK  Name = 323583
REMARK  9 active torsions:
REMARK  status: ('A' for Active; 'I' for Inactive)
REMARK    1  A    between atoms: C_2  and  C_5
REMARK    2  A    between atoms: C_6  and  O_8
REMARK    3  A    between atoms: O_8  and  C_11
REMARK    4  A    between atoms: C_17  and  C_18
REMARK    5  A    between atoms: CA_19  and  N_20
REMARK    6  A    between atoms: CA_19  and  C_21
REMARK    7  A    between atoms: C_22  and  C_26
REMARK    8  A    between atoms: C_26  and  C_27
REMARK    9  A    between atoms: C_27  and  C_28
REMARK                            x       y       z     vdW  Elec       q    Type
REMARK                         _______ _______ _______ _____ _____    ______ ____
ROOT
ATOM      1  C   UNL     1      18.777  41.712  46.788  0.00  0.00    +0.000 A 
ATOM      2  C   UNL     1      19.580  40.605  47.051  0.00  0.00    +0.000 A 
ATOM      3  C   UNL     1      19.315  43.000  46.854  0.00  0.00    +0.000 A 
ATOM      4  C   UNL     1      20.883  40.797  47.536  0.00  0.00    +0.000 A 
ATOM      5  C   UNL     1      20.599  43.189  47.365  0.00  0.00    +0.000 A 
ATOM      6  C   UNL     1      21.371  42.091  47.750  0.00  0.00    +0.000 A 
ENDROOT
BRANCH   6   7
ATOM      7  C   UNL     1      22.580  42.316  48.548  0.00  0.00    +0.000 C 
ATOM      8  CA  UNL     1      23.863  42.076  48.234  0.00  0.00    +0.000 C 
BRANCH   8   9
ATOM      9  N   UNL     1      24.290  41.523  47.040  0.00  0.00    +0.000 N 
ATOM     10  C   UNL     1      24.349  40.161  46.792  0.00  0.00    +0.000 C 
ATOM     11  O   UNL     1      23.911  39.310  47.560  0.00  0.00    +0.000 OA
ATOM     12  H   UNL     1      24.570  42.135  46.322  0.00  0.00    +0.000 HD
BRANCH  10  13
ATOM     13  C   UNL     1      24.967  39.819  45.443  0.00  0.00    +0.000 C 
BRANCH  13  14
ATOM     14  C   UNL     1      24.168  40.440  44.291  0.00  0.00    +0.000 C 
BRANCH  14  15
ATOM     15  C   UNL     1      22.651  40.352  44.472  0.00  0.00    +0.000 C 
ATOM     16  C   UNL     1      22.071  39.064  43.882  0.00  0.00    +0.000 C 
ATOM     17  C   UNL     1      21.856  41.422  43.725  0.00  0.00    +0.000 C 
ATOM     18  C   UNL     1      20.582  39.346  43.707  0.00  0.00    +0.000 C 
ATOM     19  C   UNL     1      20.436  40.868  43.709  0.00  0.00    +0.000 C 
ENDBRANCH  14  15
ENDBRANCH  13  14
ENDBRANCH  10  13
ENDBRANCH   8   9
BRANCH   8  20
ATOM     20  C   UNL     1      24.862  42.361  49.321  0.00  0.00    +0.000 C 
ATOM     21  O   UNL     1      26.074  42.297  49.198  0.00  0.00    +0.000 OA
ATOM     22  OXT UNL     1      24.259  42.701  50.481  0.00  0.00    +0.000 OA
ENDBRANCH   8  20
ENDBRANCH   6   7
BRANCH   1  23
ATOM     23  O   UNL     1      17.436  41.497  46.518  0.00  0.00    +0.000 OA
BRANCH  23  25
ATOM     24  C   UNL     1      16.799  39.890  44.841  0.00  0.00    +0.000 A 
ATOM     25  C   UNL     1      17.090  41.213  45.204  0.00  0.00    +0.000 A 
ATOM     26  C   UNL     1      16.531  39.601  43.488  0.00  0.00    +0.000 A 
ATOM     27  C   UNL     1      17.011  42.225  44.227  0.00  0.00    +0.000 A 
ATOM     28  C   UNL     1      16.528  40.600  42.516  0.00  0.00    +0.000 A 
ATOM     29  C   UNL     1      16.763  41.918  42.888  0.00  0.00    +0.000 A 
BRANCH  24  31
ATOM     30  F   UNL     1      16.486  39.074  47.114  0.00  0.00    +0.000 F 
ATOM     31  C   UNL     1      16.748  38.746  45.824  0.00  0.00    +0.000 C 
ATOM     32  F   UNL     1      17.924  38.048  45.850  0.00  0.00    +0.000 F 
ATOM     33  F   UNL     1      15.799  37.826  45.475  0.00  0.00    +0.000 F 
ENDBRANCH  24  31
ENDBRANCH  23  25
ENDBRANCH   1  23
TORSDOF 9
ENDMDL
MODEL 2
REMARK VINA RESULT:      -7.5      3.376      7.768
REMARK  Name = 323583
REMARK  9 active torsions:
REMARK  status: ('A' for Active; 'I' for Inactive)
REMARK    1  A    between atoms: C_2  and  C_5
REMARK    2  A    between atoms: C_6  and  O_8
REMARK    3  A    between atoms: O_8  and  C_11
REMARK    4  A    between atoms: C_17  and  C_18
REMARK    5  A    between atoms: CA_19  and  N_20
REMARK    6  A    between atoms: CA_19  and  C_21
REMARK    7  A    between atoms: C_22  and  C_26
REMARK    8  A    between atoms: C_26  and  C_27
REMARK    9  A    between atoms: C_27  and  C_28
REMARK                            x       y       z     vdW  Elec       q    Type
REMARK                         _______ _______ _______ _____ _____    ______ ____
ROOT
ATOM      1  C   UNL     1      22.264  41.134  46.871  0.00  0.00    +0.000 A 
ATOM      2  C   UNL     1      21.785  42.433  46.723  0.00  0.00    +0.000 A 
ATOM      3  C   UNL     1      22.199  40.237  45.801  0.00  0.00    +0.000 A 
ATOM      4  C   UNL     1      21.096  42.786  45.552  0.00  0.00    +0.000 A 
ATOM      5  C   UNL     1      21.487  40.580  44.652  0.00  0.00    +0.000 A 
ATOM      6  C   UNL     1      20.895  41.840  44.541  0.00  0.00    +0.000 A 
ENDROOT
BRANCH   6   7
ATOM      7  C   UNL     1      19.918  42.075  43.474  0.00  0.00    +0.000 C 
ATOM      8  CA  UNL     1      18.583  41.935  43.497  0.00  0.00    +0.000 C 
BRANCH   8   9
ATOM      9  N   UNL     1      17.857  41.500  44.592  0.00  0.00    +0.000 N 
ATOM     10  C   UNL     1      17.230  42.345  45.493  0.00  0.00    +0.000 C 
ATOM     11  O   UNL     1      17.148  43.560  45.344  0.00  0.00    +0.000 OA
ATOM     12  H   UNL     1      17.783  40.530  44.740  0.00  0.00    +0.000 HD
BRANCH  10  13
ATOM     13  C   UNL     1      16.601  41.612  46.671  0.00  0.00    +0.000 C 
BRANCH  13  14
ATOM     14  C   UNL     1      17.588  40.627  47.305  0.00  0.00    +0.000 C 
BRANCH  14  15
ATOM     15  C   UNL     1      17.340  39.167  46.920  0.00  0.00    +0.000 C 
ATOM     16  C   UNL     1      18.124  38.757  45.669  0.00  0.00    +0.000 C 
ATOM     17  C   UNL     1      15.905  38.851  46.505  0.00  0.00    +0.000 C 
ATOM     18  C   UNL     1      17.422  37.503  45.158  0.00  0.00    +0.000 C 
ATOM     19  C   UNL     1      16.026  37.515  45.781  0.00  0.00    +0.000 C 
ENDBRANCH  14  15
ENDBRANCH  13  14
ENDBRANCH  10  13
ENDBRANCH   8   9
BRANCH   8  20
ATOM     20  C   UNL     1      17.879  42.197  42.195  0.00  0.00    +0.000 C 
ATOM     21  O   UNL     1      16.994  41.504  41.721  0.00  0.00    +0.000 OA
ATOM     22  OXT UNL     1      18.346  43.308  41.586  0.00  0.00    +0.000 OA
ENDBRANCH   8  20
ENDBRANCH   6   7
BRANCH   1  23
ATOM     23  O   UNL     1      22.747  40.753  48.111  0.00  0.00    +0.000 OA
BRANCH  23  25
ATOM     24  C   UNL     1      25.022  41.528  48.260  0.00  0.00    +0.000 A 
ATOM     25  C   UNL     1      23.693  41.576  48.705  0.00  0.00    +0.000 A 
ATOM     26  C   UNL     1      25.990  42.305  48.926  0.00  0.00    +0.000 A 
ATOM     27  C   UNL     1      23.348  42.471  49.737  0.00  0.00    +0.000 A 
ATOM     28  C   UNL     1      25.650  43.132  49.996  0.00  0.00    +0.000 A 
ATOM     29  C   UNL     1      24.323  43.220  50.399  0.00  0.00    +0.000 A 
BRANCH  24  31
ATOM     30  F   UNL     1      24.978  39.431  47.022  0.00  0.00    +0.000 F 
ATOM     31  C   UNL     1      25.483  40.688  47.094  0.00  0.00    +0.000 C 
ATOM     32  F   UNL     1      26.843  40.542  47.080  0.00  0.00    +0.000 F 
ATOM     33  F   UNL     1      25.178  41.279  45.899  0.00  0.00    +0.000 F 
ENDBRANCH  24  31
ENDBRANCH  23  25
ENDBRANCH   1  23
TORSDOF 9
ENDMDL
MODEL 3
REMARK VINA RESULT:      -7.5      2.323      4.795
REMARK  Name = 323583
REMARK  9 active torsions:
REMARK  status: ('A' for Active; 'I' for Inactive)
REMARK    1  A    between atoms: C_2  and  C_5
REMARK    2  A    between atoms: C_6  and  O_8
REMARK    3  A    between atoms: O_8  and  C_11
REMARK    4  A    between atoms: C_17  and  C_18
REMARK    5  A    between atoms: CA_19  and  N_20
REMARK    6  A    between atoms: CA_19  and  C_21
REMARK    7  A    between atoms: C_22  and  C_26
REMARK    8  A    between atoms: C_26  and  C_27
REMARK    9  A    between atoms: C_27  and  C_28
REMARK                            x       y       z     vdW  Elec       q    Type
REMARK                         _______ _______ _______ _____ _____    ______ ____
ROOT
ATOM      1  C   UNL     1      18.715  40.498  43.469  0.00  0.00    +0.000 A 
ATOM      2  C   UNL     1      19.323  39.248  43.559  0.00  0.00    +0.000 A 
ATOM      3  C   UNL     1      19.489  41.639  43.237  0.00  0.00    +0.000 A 
ATOM      4  C   UNL     1      20.723  39.161  43.576  0.00  0.00    +0.000 A 
ATOM      5  C   UNL     1      20.880  41.554  43.286  0.00  0.00    +0.000 A 
ATOM      6  C   UNL     1      21.502  40.322  43.499  0.00  0.00    +0.000 A 
ENDROOT
BRANCH   6   7
ATOM      7  C   UNL     1      22.928  40.294  43.838  0.00  0.00    +0.000 C 
ATOM      8  CA  UNL     1      23.543  40.698  44.961  0.00  0.00    +0.000 C 
BRANCH   8   9
ATOM      9  N   UNL     1      22.902  41.261  46.050  0.00  0.00    +0.000 N 
ATOM     10  C   UNL     1      22.471  40.543  47.154  0.00  0.00    +0.000 C 
ATOM     11  O   UNL     1      22.724  39.356  47.336  0.00  0.00    +0.000 OA
ATOM     12  H   UNL     1      22.741  42.232  46.039  0.00  0.00    +0.000 HD
BRANCH  10  13
ATOM     13  C   UNL     1      21.690  41.385  48.154  0.00  0.00    +0.000 C 
BRANCH  13  14
ATOM     14  C   UNL     1      22.512  42.586  48.633  0.00  0.00    +0.000 C 
BRANCH  14  15
ATOM     15  C   UNL     1      23.855  42.207  49.261  0.00  0.00    +0.000 C 
ATOM     16  C   UNL     1      24.246  43.149  50.404  0.00  0.00    +0.000 C 
ATOM     17  C   UNL     1      25.056  42.336  48.326  0.00  0.00    +0.000 C 
ATOM     18  C   UNL     1      25.749  42.952  50.578  0.00  0.00    +0.000 C 
ATOM     19  C   UNL     1      26.250  42.333  49.274  0.00  0.00    +0.000 C 
ENDBRANCH  14  15
ENDBRANCH  13  14
ENDBRANCH  10  13
ENDBRANCH   8   9
BRANCH   8  20
ATOM     20  C   UNL     1      25.043  40.592  44.954  0.00  0.00    +0.000 C 
ATOM     21  O   UNL     1      25.719  40.122  45.853  0.00  0.00    +0.000 OA
ATOM     22  OXT UNL     1      25.576  41.090  43.818  0.00  0.00    +0.000 OA
ENDBRANCH   8  20
ENDBRANCH   6   7
BRANCH   1  23
ATOM     23  O   UNL     1      17.347  40.576  43.668  0.00  0.00    +0.000 OA
BRANCH  23  25
ATOM     24  C   UNL     1      16.662  40.839  45.961  0.00  0.00    +0.000 A 
ATOM     25  C   UNL     1      16.842  40.022  44.836  0.00  0.00    +0.000 A 
ATOM     26  C   UNL     1      16.229  40.251  47.166  0.00  0.00    +0.000 A 
ATOM     27  C   UNL     1      16.493  38.659  44.915  0.00  0.00    +0.000 A 
ATOM     28  C   UNL     1      15.957  38.887  47.253  0.00  0.00    +0.000 A 
ATOM     29  C   UNL     1      16.084  38.089  46.122  0.00  0.00    +0.000 A 
BRANCH  24  31
ATOM     30  F   UNL     1      16.302  43.036  46.950  0.00  0.00    +0.000 F 
ATOM     31  C   UNL     1      16.901  42.330  45.958  0.00  0.00    +0.000 C 
ATOM     32  F   UNL     1      16.485  42.907  44.790  0.00  0.00    +0.000 F 
ATOM     33  F   UNL     1      18.233  42.625  46.044  0.00  0.00    +0.000 F 
ENDBRANCH  24  31
ENDBRANCH  23  25
ENDBRANCH   1  23
TORSDOF 9
ENDMDL
MODEL 4
REMARK VINA RESULT:      -7.3      3.518      7.874
REMARK  Name = 323583
REMARK  9 active torsions:
REMARK  status: ('A' for Active; 'I' for Inactive)
REMARK    1  A    between atoms: C_2  and  C_5
REMARK    2  A    between atoms: C_6  and  O_8
REMARK    3  A    between atoms: O_8  and  C_11
REMARK    4  A    between atoms: C_17  and  C_18
REMARK    5  A    between atoms: CA_19  and  N_20
REMARK    6  A    between atoms: CA_19  and  C_21
REMARK    7  A    between atoms: C_22  and  C_26
REMARK    8  A    between atoms: C_26  and  C_27
REMARK    9  A    between atoms: C_27  and  C_28
REMARK                            x       y       z     vdW  Elec       q    Type
REMARK                         _______ _______ _______ _____ _____    ______ ____
ROOT
ATOM      1  C   UNL     1      22.106  41.405  46.607  0.00  0.00    +0.000 A 
ATOM      2  C   UNL     1      21.556  42.652  46.320  0.00  0.00    +0.000 A 
ATOM      3  C   UNL     1      22.021  40.369  45.672  0.00  0.00    +0.000 A 
ATOM      4  C   UNL     1      20.781  42.814  45.161  0.00  0.00    +0.000 A 
ATOM      5  C   UNL     1      21.226  40.524  44.537  0.00  0.00    +0.000 A 
ATOM      6  C   UNL     1      20.567  41.732  44.300  0.00  0.00    +0.000 A 
ENDROOT
BRANCH   6   7
ATOM      7  C   UNL     1      19.517  41.781  43.278  0.00  0.00    +0.000 C 
ATOM      8  CA  UNL     1      18.193  41.605  43.410  0.00  0.00    +0.000 C 
BRANCH   8   9
ATOM      9  N   UNL     1      17.554  41.311  44.602  0.00  0.00    +0.000 N 
ATOM     10  C   UNL     1      17.054  42.267  45.472  0.00  0.00    +0.000 C 
ATOM     11  O   UNL     1      17.014  43.466  45.215  0.00  0.00    +0.000 OA
ATOM     12  H   UNL     1      17.450  40.364  44.848  0.00  0.00    +0.000 HD
BRANCH  10  13
ATOM     13  C   UNL     1      16.506  41.679  46.765  0.00  0.00    +0.000 C 
BRANCH  13  14
ATOM     14  C   UNL     1      17.502  40.702  47.399  0.00  0.00    +0.000 C 
BRANCH  14  15
ATOM     15  C   UNL     1      17.257  39.239  47.028  0.00  0.00    +0.000 C 
ATOM     16  C   UNL     1      18.104  38.796  45.831  0.00  0.00    +0.000 C 
ATOM     17  C   UNL     1      15.843  38.932  46.538  0.00  0.00    +0.000 C 
ATOM     18  C   UNL     1      17.415  37.540  45.305  0.00  0.00    +0.000 C 
ATOM     19  C   UNL     1      15.987  37.581  45.847  0.00  0.00    +0.000 C 
ENDBRANCH  14  15
ENDBRANCH  13  14
ENDBRANCH  10  13
ENDBRANCH   8   9
BRANCH   8  20
ATOM     20  C   UNL     1      17.400  41.654  42.135  0.00  0.00    +0.000 C 
ATOM     21  O   UNL     1      17.689  42.313  41.150  0.00  0.00    +0.000 OA
ATOM     22  OXT UNL     1      16.300  40.872  42.197  0.00  0.00    +0.000 OA
ENDBRANCH   8  20
ENDBRANCH   6   7
BRANCH   1  23
ATOM     23  O   UNL     1      22.681  41.215  47.852  0.00  0.00    +0.000 OA
BRANCH  23  25
ATOM     24  C   UNL     1      24.601  42.131  48.981  0.00  0.00    +0.000 A 
ATOM     25  C   UNL     1      24.059  41.358  47.944  0.00  0.00    +0.000 A 
ATOM     26  C   UNL     1      25.994  42.338  49.016  0.00  0.00    +0.000 A 
ATOM     27  C   UNL     1      24.928  40.733  47.028  0.00  0.00    +0.000 A 
ATOM     28  C   UNL     1      26.839  41.775  48.061  0.00  0.00    +0.000 A 
ATOM     29  C   UNL     1      26.304  40.964  47.067  0.00  0.00    +0.000 A 
BRANCH  24  31
ATOM     30  F   UNL     1      22.452  42.918  49.815  0.00  0.00    +0.000 F 
ATOM     31  C   UNL     1      23.774  42.757  50.077  0.00  0.00    +0.000 C 
ATOM     32  F   UNL     1      24.237  43.998  50.416  0.00  0.00    +0.000 F 
ATOM     33  F   UNL     1      23.837  42.028  51.232  0.00  0.00    +0.000 F 
ENDBRANCH  24  31
ENDBRANCH  23  25
ENDBRANCH   1  23
TORSDOF 9
ENDMDL
MODEL 5
REMARK VINA RESULT:      -7.2      1.608      3.721
REMARK  Name = 323583
REMARK  9 active torsions:
REMARK  status: ('A' for Active; 'I' for Inactive)
REMARK    1  A    between atoms: C_2  and  C_5
REMARK    2  A    between atoms: C_6  and  O_8
REMARK    3  A    between atoms: O_8  and  C_11
REMARK    4  A    between atoms: C_17  and  C_18
REMARK    5  A    between atoms: CA_19  and  N_20
REMARK    6  A    between atoms: CA_19  and  C_21
REMARK    7  A    between atoms: C_22  and  C_26
REMARK    8  A    between atoms: C_26  and  C_27
REMARK    9  A    between atoms: C_27  and  C_28
REMARK                            x       y       z     vdW  Elec       q    Type
REMARK                         _______ _______ _______ _____ _____    ______ ____
ROOT
ATOM      1  C   UNL     1      21.321  39.434  43.690  0.00  0.00    +0.000 A 
ATOM      2  C   UNL     1      22.019  38.460  44.401  0.00  0.00    +0.000 A 
ATOM      3  C   UNL     1      21.890  40.695  43.487  0.00  0.00    +0.000 A 
ATOM      4  C   UNL     1      23.218  38.801  45.045  0.00  0.00    +0.000 A 
ATOM      5  C   UNL     1      23.065  41.041  44.154  0.00  0.00    +0.000 A 
ATOM      6  C   UNL     1      23.710  40.109  44.970  0.00  0.00    +0.000 A 
ENDROOT
BRANCH   6   7
ATOM      7  C   UNL     1      24.761  40.570  45.883  0.00  0.00    +0.000 C 
ATOM      8  CA  UNL     1      24.683  41.443  46.899  0.00  0.00    +0.000 C 
BRANCH   8   9
ATOM      9  N   UNL     1      23.532  42.113  47.272  0.00  0.00    +0.000 N 
ATOM     10  C   UNL     1      22.381  41.488  47.725  0.00  0.00    +0.000 C 
ATOM     11  O   UNL     1      22.307  40.286  47.961  0.00  0.00    +0.000 OA
ATOM     12  H   UNL     1      23.530  43.096  47.211  0.00  0.00    +0.000 HD
BRANCH  10  13
ATOM     13  C   UNL     1      21.222  42.449  47.955  0.00  0.00    +0.000 C 
BRANCH  13  14
ATOM     14  C   UNL     1      20.664  42.976  46.629  0.00  0.00    +0.000 C 
BRANCH  14  15
ATOM     15  C   UNL     1      19.199  42.610  46.384  0.00  0.00    +0.000 C 
ATOM     16  C   UNL     1      18.246  43.740  46.784  0.00  0.00    +0.000 C 
ATOM     17  C   UNL     1      18.680  41.451  47.232  0.00  0.00    +0.000 C 
ATOM     18  C   UNL     1      16.884  43.069  46.939  0.00  0.00    +0.000 C 
ATOM     19  C   UNL     1      17.165  41.579  47.126  0.00  0.00    +0.000 C 
ENDBRANCH  14  15
ENDBRANCH  13  14
ENDBRANCH  10  13
ENDBRANCH   8   9
BRANCH   8  20
ATOM     20  C   UNL     1      25.979  41.748  47.595  0.00  0.00    +0.000 C 
ATOM     21  O   UNL     1      26.620  40.958  48.268  0.00  0.00    +0.000 OA
ATOM     22  OXT UNL     1      26.368  43.025  47.396  0.00  0.00    +0.000 OA
ENDBRANCH   8  20
ENDBRANCH   6   7
BRANCH   1  23
ATOM     23  O   UNL     1      20.045  39.132  43.247  0.00  0.00    +0.000 OA
BRANCH  23  25
ATOM     24  C   UNL     1      17.865  39.853  43.974  0.00  0.00    +0.000 A 
ATOM     25  C   UNL     1      19.086  40.131  43.341  0.00  0.00    +0.000 A 
ATOM     26  C   UNL     1      16.868  40.847  43.989  0.00  0.00    +0.000 A 
ATOM     27  C   UNL     1      19.314  41.423  42.828  0.00  0.00    +0.000 A 
ATOM     28  C   UNL     1      17.077  42.099  43.413  0.00  0.00    +0.000 A 
ATOM     29  C   UNL     1      18.307  42.390  42.836  0.00  0.00    +0.000 A 
BRANCH  24  31
ATOM     30  F   UNL     1      17.790  37.419  43.925  0.00  0.00    +0.000 F 
ATOM     31  C   UNL     1      17.555  38.540  44.651  0.00  0.00    +0.000 C 
ATOM     32  F   UNL     1      16.244  38.466  45.035  0.00  0.00    +0.000 F 
ATOM     33  F   UNL     1      18.271  38.391  45.806  0.00  0.00    +0.000 F 
ENDBRANCH  24  31
ENDBRANCH  23  25
ENDBRANCH   1  23
TORSDOF 9
ENDMDL
MODEL 6
REMARK VINA RESULT:      -7.1      2.192      4.244
REMARK  Name = 323583
REMARK  9 active torsions:
REMARK  status: ('A' for Active; 'I' for Inactive)
REMARK    1  A    between atoms: C_2  and  C_5
REMARK    2  A    between atoms: C_6  and  O_8
REMARK    3  A    between atoms: O_8  and  C_11
REMARK    4  A    between atoms: C_17  and  C_18
REMARK    5  A    between atoms: CA_19  and  N_20
REMARK    6  A    between atoms: CA_19  and  C_21
REMARK    7  A    between atoms: C_22  and  C_26
REMARK    8  A    between atoms: C_26  and  C_27
REMARK    9  A    between atoms: C_27  and  C_28
REMARK                            x       y       z     vdW  Elec       q    Type
REMARK                         _______ _______ _______ _____ _____    ______ ____
ROOT
ATOM      1  C   UNL     1      20.888  39.814  43.335  0.00  0.00    +0.000 A 
ATOM      2  C   UNL     1      21.735  38.752  43.644  0.00  0.00    +0.000 A 
ATOM      3  C   UNL     1      21.274  41.126  43.623  0.00  0.00    +0.000 A 
ATOM      4  C   UNL     1      22.901  38.993  44.386  0.00  0.00    +0.000 A 
ATOM      5  C   UNL     1      22.417  41.359  44.387  0.00  0.00    +0.000 A 
ATOM      6  C   UNL     1      23.211  40.291  44.810  0.00  0.00    +0.000 A 
ENDROOT
BRANCH   6   7
ATOM      7  C   UNL     1      24.224  40.523  45.843  0.00  0.00    +0.000 C 
ATOM      8  CA  UNL     1      24.141  41.250  46.968  0.00  0.00    +0.000 C 
BRANCH   8   9
ATOM      9  N   UNL     1      23.024  41.965  47.361  0.00  0.00    +0.000 N 
ATOM     10  C   UNL     1      21.786  41.396  47.613  0.00  0.00    +0.000 C 
ATOM     11  O   UNL     1      21.586  40.185  47.635  0.00  0.00    +0.000 OA
ATOM     12  H   UNL     1      23.114  42.940  47.467  0.00  0.00    +0.000 HD
BRANCH  10  13
ATOM     13  C   UNL     1      20.700  42.420  47.913  0.00  0.00    +0.000 C 
BRANCH  13  14
ATOM     14  C   UNL     1      20.292  43.186  46.650  0.00  0.00    +0.000 C 
BRANCH  14  15
ATOM     15  C   UNL     1      18.796  43.114  46.338  0.00  0.00    +0.000 C 
ATOM     16  C   UNL     1      18.009  44.243  47.012  0.00  0.00    +0.000 C 
ATOM     17  C   UNL     1      18.089  41.875  46.883  0.00  0.00    +0.000 C 
ATOM     18  C   UNL     1      16.560  43.766  47.013  0.00  0.00    +0.000 C 
ATOM     19  C   UNL     1      16.612  42.250  46.827  0.00  0.00    +0.000 C 
ENDBRANCH  14  15
ENDBRANCH  13  14
ENDBRANCH  10  13
ENDBRANCH   8   9
BRANCH   8  20
ATOM     20  C   UNL     1      25.402  41.335  47.782  0.00  0.00    +0.000 C 
ATOM     21  O   UNL     1      26.478  40.857  47.465  0.00  0.00    +0.000 OA
ATOM     22  OXT UNL     1      25.211  42.012  48.935  0.00  0.00    +0.000 OA
ENDBRANCH   8  20
ENDBRANCH   6   7
BRANCH   1  23
ATOM     23  O   UNL     1      19.648  39.524  42.792  0.00  0.00    +0.000 OA
BRANCH  23  25
ATOM     24  C   UNL     1      17.569  40.137  43.842  0.00  0.00    +0.000 A 
ATOM     25  C   UNL     1      18.621  39.224  43.677  0.00  0.00    +0.000 A 
ATOM     26  C   UNL     1      16.576  39.862  44.803  0.00  0.00    +0.000 A 
ATOM     27  C   UNL     1      18.603  38.018  44.404  0.00  0.00    +0.000 A 
ATOM     28  C   UNL     1      16.608  38.699  45.571  0.00  0.00    +0.000 A 
ATOM     29  C   UNL     1      17.621  37.771  45.367  0.00  0.00    +0.000 A 
BRANCH  24  31
ATOM     30  F   UNL     1      17.233  41.255  41.704  0.00  0.00    +0.000 F 
ATOM     31  C   UNL     1      17.431  41.407  43.038  0.00  0.00    +0.000 C 
ATOM     32  F   UNL     1      18.534  42.206  43.159  0.00  0.00    +0.000 F 
ATOM     33  F   UNL     1      16.389  42.172  43.483  0.00  0.00    +0.000 F 
ENDBRANCH  24  31
ENDBRANCH  23  25
ENDBRANCH   1  23
TORSDOF 9
ENDMDL
MODEL 7
REMARK VINA RESULT:      -7.0      3.595      7.833
REMARK  Name = 323583
REMARK  9 active torsions:
REMARK  status: ('A' for Active; 'I' for Inactive)
REMARK    1  A    between atoms: C_2  and  C_5
REMARK    2  A    between atoms: C_6  and  O_8
REMARK    3  A    between atoms: O_8  and  C_11
REMARK    4  A    between atoms: C_17  and  C_18
REMARK    5  A    between atoms: CA_19  and  N_20
REMARK    6  A    between atoms: CA_19  and  C_21
REMARK    7  A    between atoms: C_22  and  C_26
REMARK    8  A    between atoms: C_26  and  C_27
REMARK    9  A    between atoms: C_27  and  C_28
REMARK                            x       y       z     vdW  Elec       q    Type
REMARK                         _______ _______ _______ _____ _____    ______ ____
ROOT
ATOM      1  C   UNL     1      21.767  41.564  46.450  0.00  0.00    +0.000 A 
ATOM      2  C   UNL     1      21.428  42.784  45.870  0.00  0.00    +0.000 A 
ATOM      3  C   UNL     1      21.438  40.367  45.806  0.00  0.00    +0.000 A 
ATOM      4  C   UNL     1      20.619  42.803  44.724  0.00  0.00    +0.000 A 
ATOM      5  C   UNL     1      20.609  40.388  44.686  0.00  0.00    +0.000 A 
ATOM      6  C   UNL     1      20.160  41.604  44.166  0.00  0.00    +0.000 A 
ENDROOT
BRANCH   6   7
ATOM      7  C   UNL     1      19.069  41.600  43.187  0.00  0.00    +0.000 C 
ATOM      8  CA  UNL     1      17.794  41.207  43.335  0.00  0.00    +0.000 C 
BRANCH   8   9
ATOM      9  N   UNL     1      17.262  40.689  44.502  0.00  0.00    +0.000 N 
ATOM     10  C   UNL     1      17.175  39.335  44.783  0.00  0.00    +0.000 C 
ATOM     11  O   UNL     1      17.674  38.461  44.080  0.00  0.00    +0.000 OA
ATOM     12  H   UNL     1      16.923  41.323  45.176  0.00  0.00    +0.000 HD
BRANCH  10  13
ATOM     13  C   UNL     1      16.441  39.033  46.082  0.00  0.00    +0.000 C 
BRANCH  13  14
ATOM     14  C   UNL     1      17.071  39.778  47.264  0.00  0.00    +0.000 C 
BRANCH  14  15
ATOM     15  C   UNL     1      17.598  41.170  46.909  0.00  0.00    +0.000 C 
ATOM     16  C   UNL     1      18.589  41.696  47.952  0.00  0.00    +0.000 C 
ATOM     17  C   UNL     1      16.540  42.271  46.902  0.00  0.00    +0.000 C 
ATOM     18  C   UNL     1      18.633  43.204  47.726  0.00  0.00    +0.000 C 
ATOM     19  C   UNL     1      17.359  43.556  46.960  0.00  0.00    +0.000 C 
ENDBRANCH  14  15
ENDBRANCH  13  14
ENDBRANCH  10  13
ENDBRANCH   8   9
BRANCH   8  20
ATOM     20  C   UNL     1      16.946  41.270  42.096  0.00  0.00    +0.000 C 
ATOM     21  O   UNL     1      15.878  40.703  41.944  0.00  0.00    +0.000 OA
ATOM     22  OXT UNL     1      17.510  42.040  41.140  0.00  0.00    +0.000 OA
ENDBRANCH   8  20
ENDBRANCH   6   7
BRANCH   1  23
ATOM     23  O   UNL     1      22.381  41.577  47.690  0.00  0.00    +0.000 OA
BRANCH  23  25
ATOM     24  C   UNL     1      24.469  42.084  48.778  0.00  0.00    +0.000 A 
ATOM     25  C   UNL     1      23.766  41.498  47.715  0.00  0.00    +0.000 A 
ATOM     26  C   UNL     1      25.878  42.070  48.750  0.00  0.00    +0.000 A 
ATOM     27  C   UNL     1      24.485  40.830  46.704  0.00  0.00    +0.000 A 
ATOM     28  C   UNL     1      26.580  41.471  47.706  0.00  0.00    +0.000 A 
ATOM     29  C   UNL     1      25.881  40.843  46.682  0.00  0.00    +0.000 A 
BRANCH  24  31
ATOM     30  F   UNL     1      24.283  43.940  50.344  0.00  0.00    +0.000 F 
ATOM     31  C   UNL     1      23.800  42.730  49.967  0.00  0.00    +0.000 C 
ATOM     32  F   UNL     1      23.872  41.939  51.080  0.00  0.00    +0.000 F 
ATOM     33  F   UNL     1      22.463  42.915  49.750  0.00  0.00    +0.000 F 
ENDBRANCH  24  31
ENDBRANCH  23  25
ENDBRANCH   1  23
TORSDOF 9
ENDMDL
MODEL 8
REMARK VINA RESULT:      -6.7      3.435      7.772
REMARK  Name = 323583
REMARK  9 active torsions:
REMARK  status: ('A' for Active; 'I' for Inactive)
REMARK    1  A    between atoms: C_2  and  C_5
REMARK    2  A    between atoms: C_6  and  O_8
REMARK    3  A    between atoms: O_8  and  C_11
REMARK    4  A    between atoms: C_17  and  C_18
REMARK    5  A    between atoms: CA_19  and  N_20
REMARK    6  A    between atoms: CA_19  and  C_21
REMARK    7  A    between atoms: C_22  and  C_26
REMARK    8  A    between atoms: C_26  and  C_27
REMARK    9  A    between atoms: C_27  and  C_28
REMARK                            x       y       z     vdW  Elec       q    Type
REMARK                         _______ _______ _______ _____ _____    ______ ____
ROOT
ATOM      1  C   UNL     1      22.411  41.029  46.862  0.00  0.00    +0.000 A 
ATOM      2  C   UNL     1      21.938  42.332  46.726  0.00  0.00    +0.000 A 
ATOM      3  C   UNL     1      22.294  40.127  45.800  0.00  0.00    +0.000 A 
ATOM      4  C   UNL     1      21.205  42.685  45.582  0.00  0.00    +0.000 A 
ATOM      5  C   UNL     1      21.538  40.470  44.680  0.00  0.00    +0.000 A 
ATOM      6  C   UNL     1      20.954  41.735  44.586  0.00  0.00    +0.000 A 
ENDROOT
BRANCH   6   7
ATOM      7  C   UNL     1      19.935  41.974  43.559  0.00  0.00    +0.000 C 
ATOM      8  CA  UNL     1      18.656  41.569  43.519  0.00  0.00    +0.000 C 
BRANCH   8   9
ATOM      9  N   UNL     1      18.047  40.793  44.489  0.00  0.00    +0.000 N 
ATOM     10  C   UNL     1      18.046  39.407  44.488  0.00  0.00    +0.000 C 
ATOM     11  O   UNL     1      18.690  38.727  43.696  0.00  0.00    +0.000 OA
ATOM     12  H   UNL     1      17.585  41.254  45.226  0.00  0.00    +0.000 HD
BRANCH  10  13
ATOM     13  C   UNL     1      17.203  38.804  45.604  0.00  0.00    +0.000 C 
BRANCH  13  14
ATOM     14  C   UNL     1      16.192  39.817  46.149  0.00  0.00    +0.000 C 
BRANCH  14  15
ATOM     15  C   UNL     1      16.803  40.859  47.089  0.00  0.00    +0.000 C 
ATOM     16  C   UNL     1      16.701  42.278  46.524  0.00  0.00    +0.000 C 
ATOM     17  C   UNL     1      18.308  40.718  47.305  0.00  0.00    +0.000 C 
ATOM     18  C   UNL     1      17.739  43.086  47.298  0.00  0.00    +0.000 C 
ATOM     19  C   UNL     1      18.715  42.067  47.885  0.00  0.00    +0.000 C 
ENDBRANCH  14  15
ENDBRANCH  13  14
ENDBRANCH  10  13
ENDBRANCH   8   9
BRANCH   8  20
ATOM     20  C   UNL     1      17.898  41.932  42.273  0.00  0.00    +0.000 C 
ATOM     21  O   UNL     1      16.986  41.284  41.789  0.00  0.00    +0.000 OA
ATOM     22  OXT UNL     1      18.349  43.083  41.728  0.00  0.00    +0.000 OA
ENDBRANCH   8  20
ENDBRANCH   6   7
BRANCH   1  23
ATOM     23  O   UNL     1      22.941  40.651  48.083  0.00  0.00    +0.000 OA
BRANCH  23  25
ATOM     24  C   UNL     1      25.169  41.552  48.244  0.00  0.00    +0.000 A 
ATOM     25  C   UNL     1      23.837  41.523  48.685  0.00  0.00    +0.000 A 
ATOM     26  C   UNL     1      26.089  42.379  48.917  0.00  0.00    +0.000 A 
ATOM     27  C   UNL     1      23.439  42.390  49.721  0.00  0.00    +0.000 A 
ATOM     28  C   UNL     1      25.700  43.179  49.990  0.00  0.00    +0.000 A 
ATOM     29  C   UNL     1      24.369  43.189  50.390  0.00  0.00    +0.000 A 
BRANCH  24  31
ATOM     30  F   UNL     1      25.202  39.481  46.962  0.00  0.00    +0.000 F 
ATOM     31  C   UNL     1      25.679  40.746  47.074  0.00  0.00    +0.000 C 
ATOM     32  F   UNL     1      27.041  40.628  47.096  0.00  0.00    +0.000 F 
ATOM     33  F   UNL     1      25.396  41.356  45.884  0.00  0.00    +0.000 F 
ENDBRANCH  24  31
ENDBRANCH  23  25
ENDBRANCH   1  23
TORSDOF 9
ENDMDL
MODEL 9
REMARK VINA RESULT:      -6.7      1.528      2.272
REMARK  Name = 323583
REMARK  9 active torsions:
REMARK  status: ('A' for Active; 'I' for Inactive)
REMARK    1  A    between atoms: C_2  and  C_5
REMARK    2  A    between atoms: C_6  and  O_8
REMARK    3  A    between atoms: O_8  and  C_11
REMARK    4  A    between atoms: C_17  and  C_18
REMARK    5  A    between atoms: CA_19  and  N_20
REMARK    6  A    between atoms: CA_19  and  C_21
REMARK    7  A    between atoms: C_22  and  C_26
REMARK    8  A    between atoms: C_26  and  C_27
REMARK    9  A    between atoms: C_27  and  C_28
REMARK                            x       y       z     vdW  Elec       q    Type
REMARK                         _______ _______ _______ _____ _____    ______ ____
ROOT
ATOM      1  C   UNL     1      19.182  41.028  45.994  0.00  0.00    +0.000 A 
ATOM      2  C   UNL     1      19.218  42.378  46.333  0.00  0.00    +0.000 A 
ATOM      3  C   UNL     1      19.999  40.115  46.668  0.00  0.00    +0.000 A 
ATOM      4  C   UNL     1      20.187  42.838  47.238  0.00  0.00    +0.000 A 
ATOM      5  C   UNL     1      20.981  40.577  47.542  0.00  0.00    +0.000 A 
ATOM      6  C   UNL     1      21.108  41.945  47.797  0.00  0.00    +0.000 A 
ENDROOT
BRANCH   6   7
ATOM      7  C   UNL     1      22.313  42.433  48.475  0.00  0.00    +0.000 C 
ATOM      8  CA  UNL     1      23.602  42.158  48.222  0.00  0.00    +0.000 C 
BRANCH   8   9
ATOM      9  N   UNL     1      24.042  41.300  47.230  0.00  0.00    +0.000 N 
ATOM     10  C   UNL     1      24.298  39.952  47.427  0.00  0.00    +0.000 C 
ATOM     11  O   UNL     1      24.041  39.356  48.468  0.00  0.00    +0.000 OA
ATOM     12  H   UNL     1      24.183  41.670  46.329  0.00  0.00    +0.000 HD
BRANCH  10  13
ATOM     13  C   UNL     1      24.884  39.264  46.201  0.00  0.00    +0.000 C 
BRANCH  13  14
ATOM     14  C   UNL     1      23.824  38.438  45.465  0.00  0.00    +0.000 C 
BRANCH  14  15
ATOM     15  C   UNL     1      23.179  39.168  44.286  0.00  0.00    +0.000 C 
ATOM     16  C   UNL     1      23.013  40.667  44.554  0.00  0.00    +0.000 C 
ATOM     17  C   UNL     1      21.743  38.746  43.982  0.00  0.00    +0.000 C 
ATOM     18  C   UNL     1      21.963  41.133  43.550  0.00  0.00    +0.000 C 
ATOM     19  C   UNL     1      21.214  39.877  43.107  0.00  0.00    +0.000 C 
ENDBRANCH  14  15
ENDBRANCH  13  14
ENDBRANCH  10  13
ENDBRANCH   8   9
BRANCH   8  20
ATOM     20  C   UNL     1      24.596  42.781  49.161  0.00  0.00    +0.000 C 
ATOM     21  O   UNL     1      25.790  42.899  48.946  0.00  0.00    +0.000 OA
ATOM     22  OXT UNL     1      24.011  43.202  50.304  0.00  0.00    +0.000 OA
ENDBRANCH   8  20
ENDBRANCH   6   7
BRANCH   1  23
ATOM     23  O   UNL     1      18.364  40.638  44.948  0.00  0.00    +0.000 OA
BRANCH  23  25
ATOM     24  C   UNL     1      16.942  38.970  45.946  0.00  0.00    +0.000 A 
ATOM     25  C   UNL     1      17.880  39.337  44.970  0.00  0.00    +0.000 A 
ATOM     26  C   UNL     1      16.521  37.627  46.011  0.00  0.00    +0.000 A 
ATOM     27  C   UNL     1      18.298  38.379  44.026  0.00  0.00    +0.000 A 
ATOM     28  C   UNL     1      16.998  36.670  45.118  0.00  0.00    +0.000 A 
ATOM     29  C   UNL     1      17.885  37.048  44.118  0.00  0.00    +0.000 A 
BRANCH  24  31
ATOM     30  F   UNL     1      16.093  41.190  46.477  0.00  0.00    +0.000 F 
ATOM     31  C   UNL     1      16.345  39.939  46.937  0.00  0.00    +0.000 C 
ATOM     32  F   UNL     1      17.148  40.102  48.032  0.00  0.00    +0.000 F 
ATOM     33  F   UNL     1      15.158  39.480  47.434  0.00  0.00    +0.000 F 
ENDBRANCH  24  31
ENDBRANCH  23  25
ENDBRANCH   1  23
TORSDOF 9
ENDMDL
