MODEL 1
REMARK VINA RESULT:      -8.1      0.000      0.000
REMARK  Name = 323592
REMARK  7 active torsions:
REMARK  status: ('A' for Active; 'I' for Inactive)
REMARK    1  A    between atoms: C_3  and  O_5
REMARK    2  A    between atoms: O_5  and  C_8
REMARK    3  A    between atoms: C_14  and  C_15
REMARK    4  A    between atoms: CA_16  and  N_17
REMARK    5  A    between atoms: CA_16  and  C_18
REMARK    6  A    between atoms: C_19  and  C_23
REMARK    7  A    between atoms: C_23  and  C_24
REMARK                            x       y       z     vdW  Elec       q    Type
REMARK                         _______ _______ _______ _____ _____    ______ ____
ROOT
ATOM      1  C   UNL     1      25.514  40.701  46.597  0.00  0.00    +0.000 C 
ATOM      2  CA  UNL     1      25.235  41.634  47.519  0.00  0.00    +0.000 C 
ENDROOT
BRANCH   1   8
ATOM      3  C   UNL     1      22.413  39.306  44.096  0.00  0.00    +0.000 A 
ATOM      4  C   UNL     1      22.867  38.484  45.129  0.00  0.00    +0.000 A 
ATOM      5  C   UNL     1      23.159  40.422  43.712  0.00  0.00    +0.000 A 
ATOM      6  C   UNL     1      23.974  38.875  45.892  0.00  0.00    +0.000 A 
ATOM      7  C   UNL     1      24.245  40.826  44.489  0.00  0.00    +0.000 A 
ATOM      8  C   UNL     1      24.621  40.083  45.616  0.00  0.00    +0.000 A 
BRANCH   3   9
ATOM      9  O   UNL     1      21.199  39.000  43.517  0.00  0.00    +0.000 OA
BRANCH   9  12
ATOM     10 BR   UNL     1      18.384  37.987  44.290  0.00  0.00    +0.000 Br
ATOM     11  C   UNL     1      18.916  39.713  43.709  0.00  0.00    +0.000 A 
ATOM     12  C   UNL     1      20.255  40.014  43.432  0.00  0.00    +0.000 A 
ATOM     13  C   UNL     1      17.925  40.692  43.565  0.00  0.00    +0.000 A 
ATOM     14  C   UNL     1      20.593  41.337  43.101  0.00  0.00    +0.000 A 
ATOM     15  C   UNL     1      18.267  41.983  43.159  0.00  0.00    +0.000 A 
ATOM     16  C   UNL     1      19.602  42.308  42.939  0.00  0.00    +0.000 A 
ENDBRANCH   9  12
ENDBRANCH   3   9
ENDBRANCH   1   8
BRANCH   2  17
ATOM     17  N   UNL     1      24.037  42.326  47.608  0.00  0.00    +0.000 N 
ATOM     18  C   UNL     1      22.911  41.701  48.135  0.00  0.00    +0.000 C 
ATOM     19  O   UNL     1      22.933  40.562  48.591  0.00  0.00    +0.000 OA
ATOM     20  H   UNL     1      23.983  43.259  47.299  0.00  0.00    +0.000 HD
BRANCH  18  21
ATOM     21  C   UNL     1      21.642  42.527  47.960  0.00  0.00    +0.000 C 
BRANCH  21  22
ATOM     22  C   UNL     1      20.929  42.318  46.605  0.00  0.00    +0.000 C 
ATOM     23  C   UNL     1      19.962  43.454  46.224  0.00  0.00    +0.000 C 
ATOM     24  C   UNL     1      20.159  40.982  46.581  0.00  0.00    +0.000 C 
ATOM     25  C   UNL     1      18.718  43.503  47.108  0.00  0.00    +0.000 C 
ATOM     26  C   UNL     1      18.899  40.998  47.449  0.00  0.00    +0.000 C 
ATOM     27  C   UNL     1      17.979  42.169  47.110  0.00  0.00    +0.000 C 
ENDBRANCH  21  22
ENDBRANCH  18  21
ENDBRANCH   2  17
BRANCH   2  28
ATOM     28  C   UNL     1      26.302  41.896  48.538  0.00  0.00    +0.000 C 
ATOM     29  O   UNL     1      27.363  41.297  48.604  0.00  0.00    +0.000 OA
ATOM     30  OXT UNL     1      25.934  42.858  49.411  0.00  0.00    +0.000 OA
ENDBRANCH   2  28
TORSDOF 7
ENDMDL
MODEL 2
REMARK VINA RESULT:      -8.1      3.242      6.813
REMARK  Name = 323592
REMARK  7 active torsions:
REMARK  status: ('A' for Active; 'I' for Inactive)
REMARK    1  A    between atoms: C_3  and  O_5
REMARK    2  A    between atoms: O_5  and  C_8
REMARK    3  A    between atoms: C_14  and  C_15
REMARK    4  A    between atoms: CA_16  and  N_17
REMARK    5  A    between atoms: CA_16  and  C_18
REMARK    6  A    between atoms: C_19  and  C_23
REMARK    7  A    between atoms: C_23  and  C_24
REMARK                            x       y       z     vdW  Elec       q    Type
REMARK                         _______ _______ _______ _____ _____    ______ ____
ROOT
ATOM      1  C   UNL     1      20.381  41.992  43.942  0.00  0.00    +0.000 C 
ATOM      2  CA  UNL     1      19.123  42.081  43.488  0.00  0.00    +0.000 C 
ENDROOT
BRANCH   1   8
ATOM      3  C   UNL     1      22.401  40.600  47.377  0.00  0.00    +0.000 A 
ATOM      4  C   UNL     1      22.351  39.783  46.247  0.00  0.00    +0.000 A 
ATOM      5  C   UNL     1      21.558  41.709  47.476  0.00  0.00    +0.000 A 
ATOM      6  C   UNL     1      21.585  40.172  45.142  0.00  0.00    +0.000 A 
ATOM      7  C   UNL     1      20.816  42.111  46.365  0.00  0.00    +0.000 A 
ATOM      8  C   UNL     1      20.871  41.373  45.175  0.00  0.00    +0.000 A 
BRANCH   3   9
ATOM      9  O   UNL     1      23.333  40.299  48.350  0.00  0.00    +0.000 OA
BRANCH   9  12
ATOM     10 BR   UNL     1      25.744  40.591  46.440  0.00  0.00    +0.000 Br
ATOM     11  C   UNL     1      25.351  41.554  48.027  0.00  0.00    +0.000 A 
ATOM     12  C   UNL     1      24.183  41.315  48.761  0.00  0.00    +0.000 A 
ATOM     13  C   UNL     1      26.269  42.523  48.451  0.00  0.00    +0.000 A 
ATOM     14  C   UNL     1      23.908  42.130  49.871  0.00  0.00    +0.000 A 
ATOM     15  C   UNL     1      26.019  43.272  49.602  0.00  0.00    +0.000 A 
ATOM     16  C   UNL     1      24.831  43.084  50.304  0.00  0.00    +0.000 A 
ENDBRANCH   9  12
ENDBRANCH   3   9
ENDBRANCH   1   8
BRANCH   2  17
ATOM     17  N   UNL     1      18.030  41.437  44.048  0.00  0.00    +0.000 N 
ATOM     18  C   UNL     1      17.365  42.009  45.128  0.00  0.00    +0.000 C 
ATOM     19  O   UNL     1      17.661  43.107  45.586  0.00  0.00    +0.000 OA
ATOM     20  H   UNL     1      17.726  40.575  43.681  0.00  0.00    +0.000 HD
BRANCH  18  21
ATOM     21  C   UNL     1      16.334  41.073  45.748  0.00  0.00    +0.000 C 
BRANCH  21  22
ATOM     22  C   UNL     1      16.911  40.107  46.807  0.00  0.00    +0.000 C 
ATOM     23  C   UNL     1      18.259  39.476  46.412  0.00  0.00    +0.000 C 
ATOM     24  C   UNL     1      15.912  38.979  47.135  0.00  0.00    +0.000 C 
ATOM     25  C   UNL     1      18.138  38.477  45.263  0.00  0.00    +0.000 C 
ATOM     26  C   UNL     1      15.774  37.953  46.008  0.00  0.00    +0.000 C 
ATOM     27  C   UNL     1      17.123  37.383  45.576  0.00  0.00    +0.000 C 
ENDBRANCH  21  22
ENDBRANCH  18  21
ENDBRANCH   2  17
BRANCH   2  28
ATOM     28  C   UNL     1      18.908  42.983  42.311  0.00  0.00    +0.000 C 
ATOM     29  O   UNL     1      19.570  43.979  42.068  0.00  0.00    +0.000 OA
ATOM     30  OXT UNL     1      17.860  42.584  41.559  0.00  0.00    +0.000 OA
ENDBRANCH   2  28
TORSDOF 7
ENDMDL
MODEL 3
REMARK VINA RESULT:      -7.8      1.854      2.915
REMARK  Name = 323592
REMARK  7 active torsions:
REMARK  status: ('A' for Active; 'I' for Inactive)
REMARK    1  A    between atoms: C_3  and  O_5
REMARK    2  A    between atoms: O_5  and  C_8
REMARK    3  A    between atoms: C_14  and  C_15
REMARK    4  A    between atoms: CA_16  and  N_17
REMARK    5  A    between atoms: CA_16  and  C_18
REMARK    6  A    between atoms: C_19  and  C_23
REMARK    7  A    between atoms: C_23  and  C_24
REMARK                            x       y       z     vdW  Elec       q    Type
REMARK                         _______ _______ _______ _____ _____    ______ ____
ROOT
ATOM      1  C   UNL     1      23.793  40.415  44.696  0.00  0.00    +0.000 C 
ATOM      2  CA  UNL     1      24.003  41.091  45.835  0.00  0.00    +0.000 C 
ENDROOT
BRANCH   1   8
ATOM      3  C   UNL     1      19.834  39.868  43.339  0.00  0.00    +0.000 A 
ATOM      4  C   UNL     1      20.525  38.773  43.860  0.00  0.00    +0.000 A 
ATOM      5  C   UNL     1      20.525  41.032  42.997  0.00  0.00    +0.000 A 
ATOM      6  C   UNL     1      21.877  38.903  44.202  0.00  0.00    +0.000 A 
ATOM      7  C   UNL     1      21.864  41.171  43.364  0.00  0.00    +0.000 A 
ATOM      8  C   UNL     1      22.529  40.126  44.019  0.00  0.00    +0.000 A 
BRANCH   3   9
ATOM      9  O   UNL     1      18.463  39.768  43.223  0.00  0.00    +0.000 OA
BRANCH   9  12
ATOM     10 BR   UNL     1      16.951  42.383  43.874  0.00  0.00    +0.000 Br
ATOM     11  C   UNL     1      17.013  40.761  44.856  0.00  0.00    +0.000 A 
ATOM     12  C   UNL     1      17.727  39.649  44.394  0.00  0.00    +0.000 A 
ATOM     13  C   UNL     1      16.317  40.702  46.071  0.00  0.00    +0.000 A 
ATOM     14  C   UNL     1      17.651  38.450  45.122  0.00  0.00    +0.000 A 
ATOM     15  C   UNL     1      16.316  39.526  46.822  0.00  0.00    +0.000 A 
ATOM     16  C   UNL     1      16.972  38.396  46.341  0.00  0.00    +0.000 A 
ENDBRANCH   9  12
ENDBRANCH   3   9
ENDBRANCH   1   8
BRANCH   2  17
ATOM     17  N   UNL     1      23.034  41.806  46.522  0.00  0.00    +0.000 N 
ATOM     18  C   UNL     1      22.380  41.225  47.604  0.00  0.00    +0.000 C 
ATOM     19  O   UNL     1      22.660  40.111  48.032  0.00  0.00    +0.000 OA
ATOM     20  H   UNL     1      22.809  42.723  46.244  0.00  0.00    +0.000 HD
BRANCH  18  21
ATOM     21  C   UNL     1      21.206  42.062  48.101  0.00  0.00    +0.000 C 
BRANCH  21  22
ATOM     22  C   UNL     1      19.858  41.731  47.422  0.00  0.00    +0.000 C 
ATOM     23  C   UNL     1      19.720  42.296  45.995  0.00  0.00    +0.000 C 
ATOM     24  C   UNL     1      18.670  42.229  48.269  0.00  0.00    +0.000 C 
ATOM     25  C   UNL     1      19.601  43.818  45.964  0.00  0.00    +0.000 C 
ATOM     26  C   UNL     1      18.515  43.751  48.252  0.00  0.00    +0.000 C 
ATOM     27  C   UNL     1      18.448  44.309  46.832  0.00  0.00    +0.000 C 
ENDBRANCH  21  22
ENDBRANCH  18  21
ENDBRANCH   2  17
BRANCH   2  28
ATOM     28  C   UNL     1      25.388  41.017  46.402  0.00  0.00    +0.000 C 
ATOM     29  O   UNL     1      25.890  41.862  47.125  0.00  0.00    +0.000 OA
ATOM     30  OXT UNL     1      26.040  39.911  45.984  0.00  0.00    +0.000 OA
ENDBRANCH   2  28
TORSDOF 7
ENDMDL
MODEL 4
REMARK VINA RESULT:      -7.1      1.850      2.996
REMARK  Name = 323592
REMARK  7 active torsions:
REMARK  status: ('A' for Active; 'I' for Inactive)
REMARK    1  A    between atoms: C_3  and  O_5
REMARK    2  A    between atoms: O_5  and  C_8
REMARK    3  A    between atoms: C_14  and  C_15
REMARK    4  A    between atoms: CA_16  and  N_17
REMARK    5  A    between atoms: CA_16  and  C_18
REMARK    6  A    between atoms: C_19  and  C_23
REMARK    7  A    between atoms: C_23  and  C_24
REMARK                            x       y       z     vdW  Elec       q    Type
REMARK                         _______ _______ _______ _____ _____    ______ ____
ROOT
ATOM      1  C   UNL     1      23.451  40.319  44.596  0.00  0.00    +0.000 C 
ATOM      2  CA  UNL     1      23.757  41.041  45.683  0.00  0.00    +0.000 C 
ENDROOT
BRANCH   1   8
ATOM      3  C   UNL     1      19.404  39.839  43.495  0.00  0.00    +0.000 A 
ATOM      4  C   UNL     1      20.158  38.705  43.804  0.00  0.00    +0.000 A 
ATOM      5  C   UNL     1      20.041  41.059  43.263  0.00  0.00    +0.000 A 
ATOM      6  C   UNL     1      21.530  38.830  44.053  0.00  0.00    +0.000 A 
ATOM      7  C   UNL     1      21.403  41.189  43.537  0.00  0.00    +0.000 A 
ATOM      8  C   UNL     1      22.140  40.085  43.987  0.00  0.00    +0.000 A 
BRANCH   3   9
ATOM      9  O   UNL     1      18.030  39.713  43.475  0.00  0.00    +0.000 OA
BRANCH   9  12
ATOM     10 BR   UNL     1      17.559  36.797  44.383  0.00  0.00    +0.000 Br
ATOM     11  C   UNL     1      17.044  38.413  45.234  0.00  0.00    +0.000 A 
ATOM     12  C   UNL     1      17.373  39.663  44.697  0.00  0.00    +0.000 A 
ATOM     13  C   UNL     1      16.318  38.324  46.429  0.00  0.00    +0.000 A 
ATOM     14  C   UNL     1      17.046  40.817  45.428  0.00  0.00    +0.000 A 
ATOM     15  C   UNL     1      15.932  39.483  47.104  0.00  0.00    +0.000 A 
ATOM     16  C   UNL     1      16.307  40.729  46.609  0.00  0.00    +0.000 A 
ENDBRANCH   9  12
ENDBRANCH   3   9
ENDBRANCH   1   8
BRANCH   2  17
ATOM     17  N   UNL     1      22.872  41.863  46.364  0.00  0.00    +0.000 N 
ATOM     18  C   UNL     1      22.324  41.441  47.572  0.00  0.00    +0.000 C 
ATOM     19  O   UNL     1      22.632  40.384  48.111  0.00  0.00    +0.000 OA
ATOM     20  H   UNL     1      22.632  42.742  45.994  0.00  0.00    +0.000 HD
BRANCH  18  21
ATOM     21  C   UNL     1      21.218  42.364  48.071  0.00  0.00    +0.000 C 
BRANCH  21  22
ATOM     22  C   UNL     1      19.794  41.935  47.649  0.00  0.00    +0.000 C 
ATOM     23  C   UNL     1      19.446  42.269  46.186  0.00  0.00    +0.000 C 
ATOM     24  C   UNL     1      18.728  42.562  48.568  0.00  0.00    +0.000 C 
ATOM     25  C   UNL     1      19.295  43.768  45.935  0.00  0.00    +0.000 C 
ATOM     26  C   UNL     1      18.542  44.064  48.336  0.00  0.00    +0.000 C 
ATOM     27  C   UNL     1      18.266  44.392  46.871  0.00  0.00    +0.000 C 
ENDBRANCH  21  22
ENDBRANCH  18  21
ENDBRANCH   2  17
BRANCH   2  28
ATOM     28  C   UNL     1      25.157  40.898  46.198  0.00  0.00    +0.000 C 
ATOM     29  O   UNL     1      25.770  41.766  46.798  0.00  0.00    +0.000 OA
ATOM     30  OXT UNL     1      25.684  39.695  45.885  0.00  0.00    +0.000 OA
ENDBRANCH   2  28
TORSDOF 7
ENDMDL
MODEL 5
REMARK VINA RESULT:      -6.8      2.481      4.594
REMARK  Name = 323592
REMARK  7 active torsions:
REMARK  status: ('A' for Active; 'I' for Inactive)
REMARK    1  A    between atoms: C_3  and  O_5
REMARK    2  A    between atoms: O_5  and  C_8
REMARK    3  A    between atoms: C_14  and  C_15
REMARK    4  A    between atoms: CA_16  and  N_17
REMARK    5  A    between atoms: CA_16  and  C_18
REMARK    6  A    between atoms: C_19  and  C_23
REMARK    7  A    between atoms: C_23  and  C_24
REMARK                            x       y       z     vdW  Elec       q    Type
REMARK                         _______ _______ _______ _____ _____    ______ ____
ROOT
ATOM      1  C   UNL     1      23.012  39.938  44.297  0.00  0.00    +0.000 C 
ATOM      2  CA  UNL     1      23.535  39.950  45.531  0.00  0.00    +0.000 C 
ENDROOT
BRANCH   1   8
ATOM      3  C   UNL     1      18.915  40.811  43.776  0.00  0.00    +0.000 A 
ATOM      4  C   UNL     1      19.388  39.552  43.404  0.00  0.00    +0.000 A 
ATOM      5  C   UNL     1      19.814  41.849  44.028  0.00  0.00    +0.000 A 
ATOM      6  C   UNL     1      20.761  39.284  43.454  0.00  0.00    +0.000 A 
ATOM      7  C   UNL     1      21.179  41.575  44.105  0.00  0.00    +0.000 A 
ATOM      8  C   UNL     1      21.652  40.276  43.872  0.00  0.00    +0.000 A 
BRANCH   3   9
ATOM      9  O   UNL     1      17.552  40.968  43.926  0.00  0.00    +0.000 OA
BRANCH   9  12
ATOM     10 BR   UNL     1      16.917  42.791  46.338  0.00  0.00    +0.000 Br
ATOM     11  C   UNL     1      16.614  40.930  46.133  0.00  0.00    +0.000 A 
ATOM     12  C   UNL     1      16.933  40.260  44.946  0.00  0.00    +0.000 A 
ATOM     13  C   UNL     1      16.054  40.232  47.211  0.00  0.00    +0.000 A 
ATOM     14  C   UNL     1      16.593  38.902  44.826  0.00  0.00    +0.000 A 
ATOM     15  C   UNL     1      15.793  38.865  47.105  0.00  0.00    +0.000 A 
ATOM     16  C   UNL     1      16.052  38.203  45.907  0.00  0.00    +0.000 A 
ENDBRANCH   9  12
ENDBRANCH   3   9
ENDBRANCH   1   8
BRANCH   2  17
ATOM     17  N   UNL     1      22.903  40.457  46.656  0.00  0.00    +0.000 N 
ATOM     18  C   UNL     1      23.076  41.793  47.006  0.00  0.00    +0.000 C 
ATOM     19  O   UNL     1      23.724  42.581  46.327  0.00  0.00    +0.000 OA
ATOM     20  H   UNL     1      22.333  39.873  47.205  0.00  0.00    +0.000 HD
BRANCH  18  21
ATOM     21  C   UNL     1      22.490  42.123  48.374  0.00  0.00    +0.000 C 
BRANCH  21  22
ATOM     22  C   UNL     1      23.312  41.581  49.565  0.00  0.00    +0.000 C 
ATOM     23  C   UNL     1      23.696  42.655  50.602  0.00  0.00    +0.000 C 
ATOM     24  C   UNL     1      24.595  40.878  49.082  0.00  0.00    +0.000 C 
ATOM     25  C   UNL     1      24.724  43.653  50.076  0.00  0.00    +0.000 C 
ATOM     26  C   UNL     1      25.654  41.850  48.557  0.00  0.00    +0.000 C 
ATOM     27  C   UNL     1      25.977  42.951  49.564  0.00  0.00    +0.000 C 
ENDBRANCH  21  22
ENDBRANCH  18  21
ENDBRANCH   2  17
BRANCH   2  28
ATOM     28  C   UNL     1      24.889  39.324  45.680  0.00  0.00    +0.000 C 
ATOM     29  O   UNL     1      25.943  39.939  45.688  0.00  0.00    +0.000 OA
ATOM     30  OXT UNL     1      24.811  37.979  45.767  0.00  0.00    +0.000 OA
ENDBRANCH   2  28
TORSDOF 7
ENDMDL
MODEL 6
REMARK VINA RESULT:      -6.5      2.776      6.247
REMARK  Name = 323592
REMARK  7 active torsions:
REMARK  status: ('A' for Active; 'I' for Inactive)
REMARK    1  A    between atoms: C_3  and  O_5
REMARK    2  A    between atoms: O_5  and  C_8
REMARK    3  A    between atoms: C_14  and  C_15
REMARK    4  A    between atoms: CA_16  and  N_17
REMARK    5  A    between atoms: CA_16  and  C_18
REMARK    6  A    between atoms: C_19  and  C_23
REMARK    7  A    between atoms: C_23  and  C_24
REMARK                            x       y       z     vdW  Elec       q    Type
REMARK                         _______ _______ _______ _____ _____    ______ ____
ROOT
ATOM      1  C   UNL     1      21.140  39.129  43.995  0.00  0.00    +0.000 C 
ATOM      2  CA  UNL     1      19.980  39.686  44.371  0.00  0.00    +0.000 C 
ENDROOT
BRANCH   1   8
ATOM      3  C   UNL     1      24.696  40.155  46.026  0.00  0.00    +0.000 A 
ATOM      4  C   UNL     1      24.229  40.997  45.016  0.00  0.00    +0.000 A 
ATOM      5  C   UNL     1      24.175  38.866  46.157  0.00  0.00    +0.000 A 
ATOM      6  C   UNL     1      23.122  40.615  44.249  0.00  0.00    +0.000 A 
ATOM      7  C   UNL     1      23.055  38.496  45.411  0.00  0.00    +0.000 A 
ATOM      8  C   UNL     1      22.491  39.393  44.494  0.00  0.00    +0.000 A 
BRANCH   3   9
ATOM      9  O   UNL     1      25.639  40.657  46.899  0.00  0.00    +0.000 OA
BRANCH   9  12
ATOM     10 BR   UNL     1      27.946  41.436  48.801  0.00  0.00    +0.000 Br
ATOM     11  C   UNL     1      26.101  41.864  48.920  0.00  0.00    +0.000 A 
ATOM     12  C   UNL     1      25.188  41.455  47.941  0.00  0.00    +0.000 A 
ATOM     13  C   UNL     1      25.670  42.611  50.024  0.00  0.00    +0.000 A 
ATOM     14  C   UNL     1      23.856  41.889  48.040  0.00  0.00    +0.000 A 
ATOM     15  C   UNL     1      24.326  42.968  50.149  0.00  0.00    +0.000 A 
ATOM     16  C   UNL     1      23.422  42.617  49.150  0.00  0.00    +0.000 A 
ENDBRANCH   9  12
ENDBRANCH   3   9
ENDBRANCH   1   8
BRANCH   2  17
ATOM     17  N   UNL     1      19.823  40.534  45.456  0.00  0.00    +0.000 N 
ATOM     18  C   UNL     1      20.026  41.903  45.302  0.00  0.00    +0.000 C 
ATOM     19  O   UNL     1      20.285  42.420  44.221  0.00  0.00    +0.000 OA
ATOM     20  H   UNL     1      19.569  40.169  46.334  0.00  0.00    +0.000 HD
BRANCH  18  21
ATOM     21  C   UNL     1      20.023  42.652  46.630  0.00  0.00    +0.000 C 
BRANCH  21  22
ATOM     22  C   UNL     1      18.874  42.251  47.582  0.00  0.00    +0.000 C 
ATOM     23  C   UNL     1      17.611  41.744  46.861  0.00  0.00    +0.000 C 
ATOM     24  C   UNL     1      18.481  43.422  48.505  0.00  0.00    +0.000 C 
ATOM     25  C   UNL     1      16.876  42.842  46.097  0.00  0.00    +0.000 C 
ATOM     26  C   UNL     1      17.732  44.539  47.774  0.00  0.00    +0.000 C 
ATOM     27  C   UNL     1      16.521  44.015  47.005  0.00  0.00    +0.000 C 
ENDBRANCH  21  22
ENDBRANCH  18  21
ENDBRANCH   2  17
BRANCH   2  28
ATOM     28  C   UNL     1      18.792  39.381  43.511  0.00  0.00    +0.000 C 
ATOM     29  O   UNL     1      18.208  40.197  42.816  0.00  0.00    +0.000 OA
ATOM     30  OXT UNL     1      18.412  38.090  43.622  0.00  0.00    +0.000 OA
ENDBRANCH   2  28
TORSDOF 7
ENDMDL
MODEL 7
REMARK VINA RESULT:      -5.9      2.141      4.072
REMARK  Name = 323592
REMARK  7 active torsions:
REMARK  status: ('A' for Active; 'I' for Inactive)
REMARK    1  A    between atoms: C_3  and  O_5
REMARK    2  A    between atoms: O_5  and  C_8
REMARK    3  A    between atoms: C_14  and  C_15
REMARK    4  A    between atoms: CA_16  and  N_17
REMARK    5  A    between atoms: CA_16  and  C_18
REMARK    6  A    between atoms: C_19  and  C_23
REMARK    7  A    between atoms: C_23  and  C_24
REMARK                            x       y       z     vdW  Elec       q    Type
REMARK                         _______ _______ _______ _____ _____    ______ ____
ROOT
ATOM      1  C   UNL     1      23.082  41.902  47.267  0.00  0.00    +0.000 C 
ATOM      2  CA  UNL     1      23.507  40.745  46.740  0.00  0.00    +0.000 C 
ENDROOT
BRANCH   1   8
ATOM      3  C   UNL     1      19.192  43.271  46.366  0.00  0.00    +0.000 A 
ATOM      4  C   UNL     1      20.247  43.638  45.528  0.00  0.00    +0.000 A 
ATOM      5  C   UNL     1      19.456  42.724  47.623  0.00  0.00    +0.000 A 
ATOM      6  C   UNL     1      21.560  43.298  45.875  0.00  0.00    +0.000 A 
ATOM      7  C   UNL     1      20.761  42.360  47.956  0.00  0.00    +0.000 A 
ATOM      8  C   UNL     1      21.811  42.596  47.057  0.00  0.00    +0.000 A 
BRANCH   3   9
ATOM      9  O   UNL     1      17.907  43.425  45.888  0.00  0.00    +0.000 OA
BRANCH   9  12
ATOM     10 BR   UNL     1      16.187  40.984  46.681  0.00  0.00    +0.000 Br
ATOM     11  C   UNL     1      16.793  41.512  44.963  0.00  0.00    +0.000 A 
ATOM     12  C   UNL     1      17.542  42.680  44.775  0.00  0.00    +0.000 A 
ATOM     13  C   UNL     1      16.468  40.696  43.872  0.00  0.00    +0.000 A 
ATOM     14  C   UNL     1      17.875  43.063  43.466  0.00  0.00    +0.000 A 
ATOM     15  C   UNL     1      16.873  41.050  42.584  0.00  0.00    +0.000 A 
ATOM     16  C   UNL     1      17.567  42.240  42.380  0.00  0.00    +0.000 A 
ENDBRANCH   9  12
ENDBRANCH   3   9
ENDBRANCH   1   8
BRANCH   2  17
ATOM     17  N   UNL     1      22.723  39.880  45.992  0.00  0.00    +0.000 N 
ATOM     18  C   UNL     1      22.775  39.922  44.602  0.00  0.00    +0.000 C 
ATOM     19  O   UNL     1      23.537  40.659  43.985  0.00  0.00    +0.000 OA
ATOM     20  H   UNL     1      22.131  39.237  46.445  0.00  0.00    +0.000 HD
BRANCH  18  21
ATOM     21  C   UNL     1      21.701  39.061  43.946  0.00  0.00    +0.000 C 
BRANCH  21  22
ATOM     22  C   UNL     1      20.353  39.784  43.729  0.00  0.00    +0.000 C 
ATOM     23  C   UNL     1      19.761  40.404  45.009  0.00  0.00    +0.000 C 
ATOM     24  C   UNL     1      19.307  38.839  43.106  0.00  0.00    +0.000 C 
ATOM     25  C   UNL     1      19.277  39.358  46.011  0.00  0.00    +0.000 C 
ATOM     26  C   UNL     1      18.792  37.783  44.086  0.00  0.00    +0.000 C 
ATOM     27  C   UNL     1      18.270  38.402  45.381  0.00  0.00    +0.000 C 
ENDBRANCH  21  22
ENDBRANCH  18  21
ENDBRANCH   2  17
BRANCH   2  28
ATOM     28  C   UNL     1      24.952  40.411  46.958  0.00  0.00    +0.000 C 
ATOM     29  O   UNL     1      25.621  39.705  46.222  0.00  0.00    +0.000 OA
ATOM     30  OXT UNL     1      25.424  40.957  48.099  0.00  0.00    +0.000 OA
ENDBRANCH   2  28
TORSDOF 7
ENDMDL
MODEL 8
REMARK VINA RESULT:      -5.7      2.043      4.650
REMARK  Name = 323592
REMARK  7 active torsions:
REMARK  status: ('A' for Active; 'I' for Inactive)
REMARK    1  A    between atoms: C_3  and  O_5
REMARK    2  A    between atoms: O_5  and  C_8
REMARK    3  A    between atoms: C_14  and  C_15
REMARK    4  A    between atoms: CA_16  and  N_17
REMARK    5  A    between atoms: CA_16  and  C_18
REMARK    6  A    between atoms: C_19  and  C_23
REMARK    7  A    between atoms: C_23  and  C_24
REMARK                            x       y       z     vdW  Elec       q    Type
REMARK                         _______ _______ _______ _____ _____    ______ ____
ROOT
ATOM      1  C   UNL     1      21.781  42.790  48.245  0.00  0.00    +0.000 C 
ATOM      2  CA  UNL     1      22.748  41.864  48.323  0.00  0.00    +0.000 C 
ENDROOT
BRANCH   1   8
ATOM      3  C   UNL     1      18.316  42.021  45.961  0.00  0.00    +0.000 A 
ATOM      4  C   UNL     1      19.487  42.397  45.303  0.00  0.00    +0.000 A 
ATOM      5  C   UNL     1      18.208  42.185  47.344  0.00  0.00    +0.000 A 
ATOM      6  C   UNL     1      20.612  42.775  46.047  0.00  0.00    +0.000 A 
ATOM      7  C   UNL     1      19.336  42.534  48.086  0.00  0.00    +0.000 A 
ATOM      8  C   UNL     1      20.557  42.776  47.443  0.00  0.00    +0.000 A 
BRANCH   3   9
ATOM      9  O   UNL     1      17.311  41.447  45.210  0.00  0.00    +0.000 OA
BRANCH   9  12
ATOM     10 BR   UNL     1      19.034  39.679  43.352  0.00  0.00    +0.000 Br
ATOM     11  C   UNL     1      17.718  39.159  44.616  0.00  0.00    +0.000 A 
ATOM     12  C   UNL     1      17.049  40.099  45.410  0.00  0.00    +0.000 A 
ATOM     13  C   UNL     1      17.428  37.794  44.739  0.00  0.00    +0.000 A 
ATOM     14  C   UNL     1      16.158  39.638  46.393  0.00  0.00    +0.000 A 
ATOM     15  C   UNL     1      16.481  37.358  45.668  0.00  0.00    +0.000 A 
ATOM     16  C   UNL     1      15.856  38.279  46.503  0.00  0.00    +0.000 A 
ENDBRANCH   9  12
ENDBRANCH   3   9
ENDBRANCH   1   8
BRANCH   2  17
ATOM     17  N   UNL     1      22.683  40.601  47.755  0.00  0.00    +0.000 N 
ATOM     18  C   UNL     1      23.564  39.607  48.169  0.00  0.00    +0.000 C 
ATOM     19  O   UNL     1      24.376  39.771  49.073  0.00  0.00    +0.000 OA
ATOM     20  H   UNL     1      22.014  40.409  47.059  0.00  0.00    +0.000 HD
BRANCH  18  21
ATOM     21  C   UNL     1      23.497  38.359  47.297  0.00  0.00    +0.000 C 
BRANCH  21  22
ATOM     22  C   UNL     1      24.394  38.413  46.040  0.00  0.00    +0.000 C 
ATOM     23  C   UNL     1      25.092  39.770  45.827  0.00  0.00    +0.000 C 
ATOM     24  C   UNL     1      23.597  38.061  44.770  0.00  0.00    +0.000 C 
ATOM     25  C   UNL     1      24.125  40.886  45.440  0.00  0.00    +0.000 C 
ATOM     26  C   UNL     1      22.623  39.163  44.346  0.00  0.00    +0.000 C 
ATOM     27  C   UNL     1      23.311  40.518  44.204  0.00  0.00    +0.000 C 
ENDBRANCH  21  22
ENDBRANCH  18  21
ENDBRANCH   2  17
BRANCH   2  28
ATOM     28  C   UNL     1      23.994  42.269  49.050  0.00  0.00    +0.000 C 
ATOM     29  O   UNL     1      25.092  42.395  48.533  0.00  0.00    +0.000 OA
ATOM     30  OXT UNL     1      23.768  42.443  50.370  0.00  0.00    +0.000 OA
ENDBRANCH   2  28
TORSDOF 7
ENDMDL
MODEL 9
REMARK VINA RESULT:      -5.6      1.948      4.223
REMARK  Name = 323592
REMARK  7 active torsions:
REMARK  status: ('A' for Active; 'I' for Inactive)
REMARK    1  A    between atoms: C_3  and  O_5
REMARK    2  A    between atoms: O_5  and  C_8
REMARK    3  A    between atoms: C_14  and  C_15
REMARK    4  A    between atoms: CA_16  and  N_17
REMARK    5  A    between atoms: CA_16  and  C_18
REMARK    6  A    between atoms: C_19  and  C_23
REMARK    7  A    between atoms: C_23  and  C_24
REMARK                            x       y       z     vdW  Elec       q    Type
REMARK                         _______ _______ _______ _____ _____    ______ ____
ROOT
ATOM      1  C   UNL     1      21.991  42.404  48.357  0.00  0.00    +0.000 C 
ATOM      2  CA  UNL     1      23.082  42.005  47.688  0.00  0.00    +0.000 C 
ENDROOT
BRANCH   1   8
ATOM      3  C   UNL     1      18.117  42.927  46.764  0.00  0.00    +0.000 A 
ATOM      4  C   UNL     1      19.220  43.106  45.927  0.00  0.00    +0.000 A 
ATOM      5  C   UNL     1      18.291  42.874  48.148  0.00  0.00    +0.000 A 
ATOM      6  C   UNL     1      20.513  43.058  46.462  0.00  0.00    +0.000 A 
ATOM      7  C   UNL     1      19.580  42.798  48.678  0.00  0.00    +0.000 A 
ATOM      8  C   UNL     1      20.695  42.834  47.830  0.00  0.00    +0.000 A 
BRANCH   3   9
ATOM      9  O   UNL     1      16.881  42.760  46.174  0.00  0.00    +0.000 OA
BRANCH   9  12
ATOM     10 BR   UNL     1      16.442  39.801  46.950  0.00  0.00    +0.000 Br
ATOM     11  C   UNL     1      16.656  40.567  45.227  0.00  0.00    +0.000 A 
ATOM     12  C   UNL     1      16.811  41.947  45.051  0.00  0.00    +0.000 A 
ATOM     13  C   UNL     1      16.653  39.708  44.121  0.00  0.00    +0.000 A 
ATOM     14  C   UNL     1      16.866  42.457  43.743  0.00  0.00    +0.000 A 
ATOM     15  C   UNL     1      16.787  40.222  42.831  0.00  0.00    +0.000 A 
ATOM     16  C   UNL     1      16.881  41.598  42.642  0.00  0.00    +0.000 A 
ENDBRANCH   9  12
ENDBRANCH   3   9
ENDBRANCH   1   8
BRANCH   2  17
ATOM     17  N   UNL     1      23.131  41.765  46.323  0.00  0.00    +0.000 N 
ATOM     18  C   UNL     1      23.505  40.510  45.853  0.00  0.00    +0.000 C 
ATOM     19  O   UNL     1      23.743  39.563  46.595  0.00  0.00    +0.000 OA
ATOM     20  H   UNL     1      22.901  42.482  45.689  0.00  0.00    +0.000 HD
BRANCH  18  21
ATOM     21  C   UNL     1      23.712  40.485  44.342  0.00  0.00    +0.000 C 
BRANCH  21  22
ATOM     22  C   UNL     1      22.720  39.579  43.580  0.00  0.00    +0.000 C 
ATOM     23  C   UNL     1      21.825  40.332  42.578  0.00  0.00    +0.000 C 
ATOM     24  C   UNL     1      21.820  38.794  44.555  0.00  0.00    +0.000 C 
ATOM     25  C   UNL     1      20.800  41.239  43.256  0.00  0.00    +0.000 C 
ATOM     26  C   UNL     1      20.773  39.671  45.246  0.00  0.00    +0.000 C 
ATOM     27  C   UNL     1      19.937  40.467  44.247  0.00  0.00    +0.000 C 
ENDBRANCH  21  22
ENDBRANCH  18  21
ENDBRANCH   2  17
BRANCH   2  28
ATOM     28  C   UNL     1      24.335  41.855  48.497  0.00  0.00    +0.000 C 
ATOM     29  O   UNL     1      25.466  41.890  48.040  0.00  0.00    +0.000 OA
ATOM     30  OXT UNL     1      24.064  41.636  49.801  0.00  0.00    +0.000 OA
ENDBRANCH   2  28
TORSDOF 7
ENDMDL
