MODEL 1
REMARK VINA RESULT:      -7.3      0.000      0.000
REMARK  Name = 321584
REMARK  7 active torsions:
REMARK  status: ('A' for Active; 'I' for Inactive)
REMARK    1  A    between atoms: C_3  and  O_5
REMARK    2  A    between atoms: O_5  and  C_8
REMARK    3  A    between atoms: C_14  and  C_15
REMARK    4  A    between atoms: CA_16  and  N_17
REMARK    5  A    between atoms: CA_16  and  C_18
REMARK    6  A    between atoms: C_19  and  C_23
REMARK    7  A    between atoms: C_23  and  C_24
REMARK                            x       y       z     vdW  Elec       q    Type
REMARK                         _______ _______ _______ _____ _____    ______ ____
ROOT
ATOM      1  C   UNL     1      24.214  40.703  45.213  0.00  0.00    +0.000 C 
ATOM      2  CA  UNL     1      24.264  41.424  46.340  0.00  0.00    +0.000 C 
ENDROOT
BRANCH   1   8
ATOM      3  C   UNL     1      20.516  39.501  43.496  0.00  0.00    +0.000 A 
ATOM      4  C   UNL     1      21.380  38.537  44.024  0.00  0.00    +0.000 A 
ATOM      5  C   UNL     1      20.989  40.798  43.281  0.00  0.00    +0.000 A 
ATOM      6  C   UNL     1      22.659  38.908  44.463  0.00  0.00    +0.000 A 
ATOM      7  C   UNL     1      22.245  41.180  43.765  0.00  0.00    +0.000 A 
ATOM      8  C   UNL     1      23.070  40.244  44.404  0.00  0.00    +0.000 A 
BRANCH   3   9
ATOM      9  O   UNL     1      19.215  39.131  43.221  0.00  0.00    +0.000 OA
BRANCH   9  12
ATOM     10 BR   UNL     1      17.031  41.200  42.429  0.00  0.00    +0.000 Br
ATOM     11  C   UNL     1      17.218  40.202  44.035  0.00  0.00    +0.000 A 
ATOM     12  C   UNL     1      18.257  39.279  44.215  0.00  0.00    +0.000 A 
ATOM     13  C   UNL     1      16.263  40.406  45.046  0.00  0.00    +0.000 A 
ATOM     14  C   UNL     1      18.267  38.509  45.389  0.00  0.00    +0.000 A 
ATOM     15  C   UNL     1      16.325  39.676  46.231  0.00  0.00    +0.000 A 
ATOM     16  C   UNL     1      17.322  38.720  46.396  0.00  0.00    +0.000 A 
ENDBRANCH   9  12
ENDBRANCH   3   9
ENDBRANCH   1   8
BRANCH   2  17
ATOM     17  N   UNL     1      23.224  42.040  46.999  0.00  0.00    +0.000 N 
ATOM     18  C   UNL     1      22.204  41.369  47.656  0.00  0.00    +0.000 C 
ATOM     19  O   UNL     1      22.084  40.148  47.682  0.00  0.00    +0.000 OA
ATOM     20  H   UNL     1      23.204  43.024  47.003  0.00  0.00    +0.000 HD
BRANCH  18  21
ATOM     21  C   UNL     1      21.138  42.286  48.247  0.00  0.00    +0.000 C 
BRANCH  21  22
ATOM     22  C   UNL     1      19.983  42.609  47.330  0.00  0.00    +0.000 A 
ATOM     23  C   UNL     1      18.731  42.929  47.881  0.00  0.00    +0.000 A 
ATOM     24  C   UNL     1      20.149  42.707  45.939  0.00  0.00    +0.000 A 
ATOM     25  C   UNL     1      17.662  43.302  47.062  0.00  0.00    +0.000 A 
ATOM     26  C   UNL     1      19.081  43.083  45.120  0.00  0.00    +0.000 A 
ATOM     27  C   UNL     1      17.842  43.373  45.682  0.00  0.00    +0.000 A 
ATOM     28 CL   UNL     1      16.529  43.838  44.672  0.00  0.00    +0.000 Cl
ENDBRANCH  21  22
ENDBRANCH  18  21
ENDBRANCH   2  17
BRANCH   2  29
ATOM     29  C   UNL     1      25.628  41.506  46.973  0.00  0.00    +0.000 C 
ATOM     30  O   UNL     1      26.067  42.465  47.592  0.00  0.00    +0.000 OA
ATOM     31  OXT UNL     1      26.339  40.375  46.763  0.00  0.00    +0.000 OA
ENDBRANCH   2  29
TORSDOF 7
ENDMDL
MODEL 2
REMARK VINA RESULT:      -7.1      3.429      6.886
REMARK  Name = 321584
REMARK  7 active torsions:
REMARK  status: ('A' for Active; 'I' for Inactive)
REMARK    1  A    between atoms: C_3  and  O_5
REMARK    2  A    between atoms: O_5  and  C_8
REMARK    3  A    between atoms: C_14  and  C_15
REMARK    4  A    between atoms: CA_16  and  N_17
REMARK    5  A    between atoms: CA_16  and  C_18
REMARK    6  A    between atoms: C_19  and  C_23
REMARK    7  A    between atoms: C_23  and  C_24
REMARK                            x       y       z     vdW  Elec       q    Type
REMARK                         _______ _______ _______ _____ _____    ______ ____
ROOT
ATOM      1  C   UNL     1      20.316  42.217  43.484  0.00  0.00    +0.000 C 
ATOM      2  CA  UNL     1      18.982  42.104  43.471  0.00  0.00    +0.000 C 
ENDROOT
BRANCH   1   8
ATOM      3  C   UNL     1      22.583  41.096  46.900  0.00  0.00    +0.000 A 
ATOM      4  C   UNL     1      22.164  42.421  46.751  0.00  0.00    +0.000 A 
ATOM      5  C   UNL     1      22.502  40.227  45.808  0.00  0.00    +0.000 A 
ATOM      6  C   UNL     1      21.540  42.830  45.564  0.00  0.00    +0.000 A 
ATOM      7  C   UNL     1      21.834  40.620  44.643  0.00  0.00    +0.000 A 
ATOM      8  C   UNL     1      21.305  41.913  44.534  0.00  0.00    +0.000 A 
BRANCH   3   9
ATOM      9  O   UNL     1      23.049  40.693  48.135  0.00  0.00    +0.000 OA
BRANCH   9  12
ATOM     10 BR   UNL     1      25.842  40.689  46.766  0.00  0.00    +0.000 Br
ATOM     11  C   UNL     1      25.274  41.593  48.337  0.00  0.00    +0.000 A 
ATOM     12  C   UNL     1      23.955  41.507  48.802  0.00  0.00    +0.000 A 
ATOM     13  C   UNL     1      26.223  42.371  49.023  0.00  0.00    +0.000 A 
ATOM     14  C   UNL     1      23.590  42.285  49.913  0.00  0.00    +0.000 A 
ATOM     15  C   UNL     1      25.855  43.088  50.160  0.00  0.00    +0.000 A 
ATOM     16  C   UNL     1      24.536  43.052  50.598  0.00  0.00    +0.000 A 
ENDBRANCH   9  12
ENDBRANCH   3   9
ENDBRANCH   1   8
BRANCH   2  17
ATOM     17  N   UNL     1      18.169  41.551  44.433  0.00  0.00    +0.000 N 
ATOM     18  C   UNL     1      17.736  42.213  45.571  0.00  0.00    +0.000 C 
ATOM     19  O   UNL     1      18.070  43.355  45.876  0.00  0.00    +0.000 OA
ATOM     20  H   UNL     1      17.874  40.620  44.304  0.00  0.00    +0.000 HD
BRANCH  18  21
ATOM     21  C   UNL     1      16.898  41.352  46.510  0.00  0.00    +0.000 C 
BRANCH  21  22
ATOM     22  C   UNL     1      16.901  39.873  46.206  0.00  0.00    +0.000 A 
ATOM     23  C   UNL     1      15.748  39.112  46.460  0.00  0.00    +0.000 A 
ATOM     24  C   UNL     1      17.989  39.252  45.573  0.00  0.00    +0.000 A 
ATOM     25  C   UNL     1      15.695  37.757  46.124  0.00  0.00    +0.000 A 
ATOM     26  C   UNL     1      17.935  37.897  45.233  0.00  0.00    +0.000 A 
ATOM     27  C   UNL     1      16.793  37.154  45.515  0.00  0.00    +0.000 A 
ATOM     28 CL   UNL     1      16.728  35.487  45.094  0.00  0.00    +0.000 Cl
ENDBRANCH  21  22
ENDBRANCH  18  21
ENDBRANCH   2  17
BRANCH   2  29
ATOM     29  C   UNL     1      18.311  42.719  42.271  0.00  0.00    +0.000 C 
ATOM     30  O   UNL     1      18.568  43.818  41.798  0.00  0.00    +0.000 OA
ATOM     31  OXT UNL     1      17.357  41.904  41.766  0.00  0.00    +0.000 OA
ENDBRANCH   2  29
TORSDOF 7
ENDMDL
MODEL 3
REMARK VINA RESULT:      -6.0      1.798      2.575
REMARK  Name = 321584
REMARK  7 active torsions:
REMARK  status: ('A' for Active; 'I' for Inactive)
REMARK    1  A    between atoms: C_3  and  O_5
REMARK    2  A    between atoms: O_5  and  C_8
REMARK    3  A    between atoms: C_14  and  C_15
REMARK    4  A    between atoms: CA_16  and  N_17
REMARK    5  A    between atoms: CA_16  and  C_18
REMARK    6  A    between atoms: C_19  and  C_23
REMARK    7  A    between atoms: C_23  and  C_24
REMARK                            x       y       z     vdW  Elec       q    Type
REMARK                         _______ _______ _______ _____ _____    ______ ____
ROOT
ATOM      1  C   UNL     1      24.788  41.013  46.874  0.00  0.00    +0.000 C 
ATOM      2  CA  UNL     1      24.403  41.722  47.942  0.00  0.00    +0.000 C 
ENDROOT
BRANCH   1   8
ATOM      3  C   UNL     1      22.016  39.483  44.038  0.00  0.00    +0.000 A 
ATOM      4  C   UNL     1      22.047  38.953  45.331  0.00  0.00    +0.000 A 
ATOM      5  C   UNL     1      23.067  40.298  43.607  0.00  0.00    +0.000 A 
ATOM      6  C   UNL     1      23.049  39.352  46.227  0.00  0.00    +0.000 A 
ATOM      7  C   UNL     1      24.037  40.736  44.516  0.00  0.00    +0.000 A 
ATOM      8  C   UNL     1      24.005  40.301  45.848  0.00  0.00    +0.000 A 
BRANCH   3   9
ATOM      9  O   UNL     1      20.931  39.190  43.238  0.00  0.00    +0.000 OA
BRANCH   9  12
ATOM     10 BR   UNL     1      18.300  37.697  43.966  0.00  0.00    +0.000 Br
ATOM     11  C   UNL     1      18.565  39.528  43.535  0.00  0.00    +0.000 A 
ATOM     12  C   UNL     1      19.838  40.046  43.259  0.00  0.00    +0.000 A 
ATOM     13  C   UNL     1      17.436  40.365  43.515  0.00  0.00    +0.000 A 
ATOM     14  C   UNL     1      19.962  41.428  43.049  0.00  0.00    +0.000 A 
ATOM     15  C   UNL     1      17.572  41.725  43.243  0.00  0.00    +0.000 A 
ATOM     16  C   UNL     1      18.837  42.257  43.021  0.00  0.00    +0.000 A 
ENDBRANCH   9  12
ENDBRANCH   3   9
ENDBRANCH   1   8
BRANCH   2  17
ATOM     17  N   UNL     1      23.125  42.073  48.310  0.00  0.00    +0.000 N 
ATOM     18  C   UNL     1      22.158  42.547  47.436  0.00  0.00    +0.000 C 
ATOM     19  O   UNL     1      22.349  42.755  46.242  0.00  0.00    +0.000 OA
ATOM     20  H   UNL     1      22.880  41.981  49.260  0.00  0.00    +0.000 HD
BRANCH  18  21
ATOM     21  C   UNL     1      20.844  42.928  48.111  0.00  0.00    +0.000 C 
BRANCH  21  22
ATOM     22  C   UNL     1      19.627  42.181  47.621  0.00  0.00    +0.000 A 
ATOM     23  C   UNL     1      19.699  40.791  47.428  0.00  0.00    +0.000 A 
ATOM     24  C   UNL     1      18.387  42.817  47.457  0.00  0.00    +0.000 A 
ATOM     25  C   UNL     1      18.571  40.062  47.045  0.00  0.00    +0.000 A 
ATOM     26  C   UNL     1      17.257  42.087  47.076  0.00  0.00    +0.000 A 
ATOM     27  C   UNL     1      17.354  40.716  46.866  0.00  0.00    +0.000 A 
ATOM     28 CL   UNL     1      15.962  39.818  46.401  0.00  0.00    +0.000 Cl
ENDBRANCH  21  22
ENDBRANCH  18  21
ENDBRANCH   2  17
BRANCH   2  29
ATOM     29  C   UNL     1      25.522  42.121  48.868  0.00  0.00    +0.000 C 
ATOM     30  O   UNL     1      25.415  42.865  49.833  0.00  0.00    +0.000 OA
ATOM     31  OXT UNL     1      26.696  41.562  48.494  0.00  0.00    +0.000 OA
ENDBRANCH   2  29
TORSDOF 7
ENDMDL
MODEL 4
REMARK VINA RESULT:      -5.3      2.253      4.557
REMARK  Name = 321584
REMARK  7 active torsions:
REMARK  status: ('A' for Active; 'I' for Inactive)
REMARK    1  A    between atoms: C_3  and  O_5
REMARK    2  A    between atoms: O_5  and  C_8
REMARK    3  A    between atoms: C_14  and  C_15
REMARK    4  A    between atoms: CA_16  and  N_17
REMARK    5  A    between atoms: CA_16  and  C_18
REMARK    6  A    between atoms: C_19  and  C_23
REMARK    7  A    between atoms: C_23  and  C_24
REMARK                            x       y       z     vdW  Elec       q    Type
REMARK                         _______ _______ _______ _____ _____    ______ ____
ROOT
ATOM      1  C   UNL     1      22.287  42.582  49.149  0.00  0.00    +0.000 C 
ATOM      2  CA  UNL     1      23.524  42.093  48.997  0.00  0.00    +0.000 C 
ENDROOT
BRANCH   1   8
ATOM      3  C   UNL     1      18.628  41.681  47.183  0.00  0.00    +0.000 A 
ATOM      4  C   UNL     1      19.819  41.116  46.720  0.00  0.00    +0.000 A 
ATOM      5  C   UNL     1      18.681  42.741  48.091  0.00  0.00    +0.000 A 
ATOM      6  C   UNL     1      21.044  41.517  47.271  0.00  0.00    +0.000 A 
ATOM      7  C   UNL     1      19.898  43.105  48.679  0.00  0.00    +0.000 A 
ATOM      8  C   UNL     1      21.084  42.459  48.305  0.00  0.00    +0.000 A 
BRANCH   3   9
ATOM      9  O   UNL     1      17.436  41.152  46.730  0.00  0.00    +0.000 OA
BRANCH   9  12
ATOM     10 BR   UNL     1      16.850  38.275  45.702  0.00  0.00    +0.000 Br
ATOM     11  C   UNL     1      16.948  39.904  44.729  0.00  0.00    +0.000 A 
ATOM     12  C   UNL     1      17.195  41.129  45.363  0.00  0.00    +0.000 A 
ATOM     13  C   UNL     1      16.749  39.847  43.339  0.00  0.00    +0.000 A 
ATOM     14  C   UNL     1      17.151  42.299  44.588  0.00  0.00    +0.000 A 
ATOM     15  C   UNL     1      16.771  41.014  42.577  0.00  0.00    +0.000 A 
ATOM     16  C   UNL     1      16.961  42.240  43.205  0.00  0.00    +0.000 A 
ENDBRANCH   9  12
ENDBRANCH   3   9
ENDBRANCH   1   8
BRANCH   2  17
ATOM     17  N   UNL     1      23.979  41.226  48.031  0.00  0.00    +0.000 N 
ATOM     18  C   UNL     1      25.163  41.386  47.327  0.00  0.00    +0.000 C 
ATOM     19  O   UNL     1      25.916  42.348  47.450  0.00  0.00    +0.000 OA
ATOM     20  H   UNL     1      23.426  40.437  47.825  0.00  0.00    +0.000 HD
BRANCH  18  21
ATOM     21  C   UNL     1      25.403  40.319  46.264  0.00  0.00    +0.000 C 
BRANCH  21  22
ATOM     22  C   UNL     1      24.217  40.007  45.383  0.00  0.00    +0.000 A 
ATOM     23  C   UNL     1      23.661  38.717  45.404  0.00  0.00    +0.000 A 
ATOM     24  C   UNL     1      23.581  40.999  44.621  0.00  0.00    +0.000 A 
ATOM     25  C   UNL     1      22.520  38.416  44.654  0.00  0.00    +0.000 A 
ATOM     26  C   UNL     1      22.438  40.700  43.874  0.00  0.00    +0.000 A 
ATOM     27  C   UNL     1      21.916  39.410  43.888  0.00  0.00    +0.000 A 
ATOM     28 CL   UNL     1      20.508  39.044  42.970  0.00  0.00    +0.000 Cl
ENDBRANCH  21  22
ENDBRANCH  18  21
ENDBRANCH   2  17
BRANCH   2  29
ATOM     29  C   UNL     1      24.533  42.620  49.983  0.00  0.00    +0.000 C 
ATOM     30  O   UNL     1      25.528  43.273  49.701  0.00  0.00    +0.000 OA
ATOM     31  OXT UNL     1      24.215  42.268  51.250  0.00  0.00    +0.000 OA
ENDBRANCH   2  29
TORSDOF 7
ENDMDL
MODEL 5
REMARK VINA RESULT:      -5.0      2.926      6.178
REMARK  Name = 321584
REMARK  7 active torsions:
REMARK  status: ('A' for Active; 'I' for Inactive)
REMARK    1  A    between atoms: C_3  and  O_5
REMARK    2  A    between atoms: O_5  and  C_8
REMARK    3  A    between atoms: C_14  and  C_15
REMARK    4  A    between atoms: CA_16  and  N_17
REMARK    5  A    between atoms: CA_16  and  C_18
REMARK    6  A    between atoms: C_19  and  C_23
REMARK    7  A    between atoms: C_23  and  C_24
REMARK                            x       y       z     vdW  Elec       q    Type
REMARK                         _______ _______ _______ _____ _____    ______ ____
ROOT
ATOM      1  C   UNL     1      19.759  40.472  43.046  0.00  0.00    +0.000 C 
ATOM      2  CA  UNL     1      18.527  40.622  43.547  0.00  0.00    +0.000 C 
ENDROOT
BRANCH   1   8
ATOM      3  C   UNL     1      23.220  40.413  45.512  0.00  0.00    +0.000 A 
ATOM      4  C   UNL     1      22.515  41.606  45.338  0.00  0.00    +0.000 A 
ATOM      5  C   UNL     1      22.957  39.333  44.665  0.00  0.00    +0.000 A 
ATOM      6  C   UNL     1      21.459  41.668  44.418  0.00  0.00    +0.000 A 
ATOM      7  C   UNL     1      21.871  39.377  43.784  0.00  0.00    +0.000 A 
ATOM      8  C   UNL     1      21.083  40.533  43.690  0.00  0.00    +0.000 A 
BRANCH   3   9
ATOM      9  O   UNL     1      24.146  40.344  46.534  0.00  0.00    +0.000 OA
BRANCH   9  12
ATOM     10 BR   UNL     1      26.875  41.355  47.633  0.00  0.00    +0.000 Br
ATOM     11  C   UNL     1      25.119  41.692  48.276  0.00  0.00    +0.000 A 
ATOM     12  C   UNL     1      23.985  41.176  47.634  0.00  0.00    +0.000 A 
ATOM     13  C   UNL     1      24.986  42.497  49.420  0.00  0.00    +0.000 A 
ATOM     14  C   UNL     1      22.721  41.555  48.111  0.00  0.00    +0.000 A 
ATOM     15  C   UNL     1      23.722  42.811  49.916  0.00  0.00    +0.000 A 
ATOM     16  C   UNL     1      22.590  42.348  49.254  0.00  0.00    +0.000 A 
ENDBRANCH   9  12
ENDBRANCH   3   9
ENDBRANCH   1   8
BRANCH   2  17
ATOM     17  N   UNL     1      18.161  40.771  44.865  0.00  0.00    +0.000 N 
ATOM     18  C   UNL     1      17.918  39.719  45.735  0.00  0.00    +0.000 C 
ATOM     19  O   UNL     1      17.953  38.534  45.415  0.00  0.00    +0.000 OA
ATOM     20  H   UNL     1      18.064  41.686  45.214  0.00  0.00    +0.000 HD
BRANCH  18  21
ATOM     21  C   UNL     1      17.461  40.154  47.124  0.00  0.00    +0.000 C 
BRANCH  21  22
ATOM     22  C   UNL     1      17.600  41.629  47.417  0.00  0.00    +0.000 A 
ATOM     23  C   UNL     1      18.783  42.110  48.003  0.00  0.00    +0.000 A 
ATOM     24  C   UNL     1      16.623  42.556  47.021  0.00  0.00    +0.000 A 
ATOM     25  C   UNL     1      18.970  43.477  48.221  0.00  0.00    +0.000 A 
ATOM     26  C   UNL     1      16.811  43.924  47.236  0.00  0.00    +0.000 A 
ATOM     27  C   UNL     1      17.979  44.379  47.840  0.00  0.00    +0.000 A 
ATOM     28 CL   UNL     1      18.210  46.063  48.101  0.00  0.00    +0.000 Cl
ENDBRANCH  21  22
ENDBRANCH  18  21
ENDBRANCH   2  17
BRANCH   2  29
ATOM     29  C   UNL     1      17.433  40.692  42.515  0.00  0.00    +0.000 C 
ATOM     30  O   UNL     1      17.406  41.454  41.558  0.00  0.00    +0.000 OA
ATOM     31  OXT UNL     1      16.447  39.804  42.779  0.00  0.00    +0.000 OA
ENDBRANCH   2  29
TORSDOF 7
ENDMDL
MODEL 6
REMARK VINA RESULT:      -4.4      3.557      7.111
REMARK  Name = 321584
REMARK  7 active torsions:
REMARK  status: ('A' for Active; 'I' for Inactive)
REMARK    1  A    between atoms: C_3  and  O_5
REMARK    2  A    between atoms: O_5  and  C_8
REMARK    3  A    between atoms: C_14  and  C_15
REMARK    4  A    between atoms: CA_16  and  N_17
REMARK    5  A    between atoms: CA_16  and  C_18
REMARK    6  A    between atoms: C_19  and  C_23
REMARK    7  A    between atoms: C_23  and  C_24
REMARK                            x       y       z     vdW  Elec       q    Type
REMARK                         _______ _______ _______ _____ _____    ______ ____
ROOT
ATOM      1  C   UNL     1      17.875  42.233  44.158  0.00  0.00    +0.000 C 
ATOM      2  CA  UNL     1      18.042  41.289  43.224  0.00  0.00    +0.000 C 
ENDROOT
BRANCH   1   8
ATOM      3  C   UNL     1      20.740  42.941  47.217  0.00  0.00    +0.000 A 
ATOM      4  C   UNL     1      19.422  42.631  47.562  0.00  0.00    +0.000 A 
ATOM      5  C   UNL     1      21.037  43.291  45.897  0.00  0.00    +0.000 A 
ATOM      6  C   UNL     1      18.441  42.535  46.565  0.00  0.00    +0.000 A 
ATOM      7  C   UNL     1      20.071  43.146  44.895  0.00  0.00    +0.000 A 
ATOM      8  C   UNL     1      18.776  42.719  45.218  0.00  0.00    +0.000 A 
BRANCH   3   9
ATOM      9  O   UNL     1      21.706  42.873  48.201  0.00  0.00    +0.000 OA
BRANCH   9  12
ATOM     10 BR   UNL     1      24.213  43.278  49.996  0.00  0.00    +0.000 Br
ATOM     11  C   UNL     1      23.635  41.723  49.070  0.00  0.00    +0.000 A 
ATOM     12  C   UNL     1      22.450  41.707  48.322  0.00  0.00    +0.000 A 
ATOM     13  C   UNL     1      24.432  40.570  49.169  0.00  0.00    +0.000 A 
ATOM     14  C   UNL     1      22.041  40.491  47.752  0.00  0.00    +0.000 A 
ATOM     15  C   UNL     1      24.040  39.388  48.543  0.00  0.00    +0.000 A 
ATOM     16  C   UNL     1      22.839  39.347  47.844  0.00  0.00    +0.000 A 
ENDBRANCH   9  12
ENDBRANCH   3   9
ENDBRANCH   1   8
BRANCH   2  17
ATOM     17  N   UNL     1      19.184  40.578  42.932  0.00  0.00    +0.000 N 
ATOM     18  C   UNL     1      19.703  39.567  43.726  0.00  0.00    +0.000 C 
ATOM     19  O   UNL     1      19.231  39.225  44.807  0.00  0.00    +0.000 OA
ATOM     20  H   UNL     1      19.665  40.803  42.103  0.00  0.00    +0.000 HD
BRANCH  18  21
ATOM     21  C   UNL     1      21.015  38.985  43.212  0.00  0.00    +0.000 C 
BRANCH  21  22
ATOM     22  C   UNL     1      22.249  39.396  43.978  0.00  0.00    +0.000 A 
ATOM     23  C   UNL     1      23.097  38.409  44.506  0.00  0.00    +0.000 A 
ATOM     24  C   UNL     1      22.636  40.741  44.088  0.00  0.00    +0.000 A 
ATOM     25  C   UNL     1      24.283  38.756  45.158  0.00  0.00    +0.000 A 
ATOM     26  C   UNL     1      23.824  41.089  44.737  0.00  0.00    +0.000 A 
ATOM     27  C   UNL     1      24.639  40.098  45.275  0.00  0.00    +0.000 A 
ATOM     28 CL   UNL     1      26.102  40.528  46.072  0.00  0.00    +0.000 Cl
ENDBRANCH  21  22
ENDBRANCH  18  21
ENDBRANCH   2  17
BRANCH   2  29
ATOM     29  C   UNL     1      16.797  40.943  42.451  0.00  0.00    +0.000 C 
ATOM     30  O   UNL     1      16.361  41.563  41.491  0.00  0.00    +0.000 OA
ATOM     31  OXT UNL     1      16.189  39.846  42.960  0.00  0.00    +0.000 OA
ENDBRANCH   2  29
TORSDOF 7
ENDMDL
