MODEL 1
REMARK VINA RESULT:      -5.7      0.000      0.000
REMARK  Name = 323372
REMARK  8 active torsions:
REMARK  status: ('A' for Active; 'I' for Inactive)
REMARK    1  A    between atoms: C_3  and  O_5
REMARK    2  A    between atoms: O_5  and  C_8
REMARK    3  A    between atoms: C_14  and  C_15
REMARK    4  A    between atoms: C_16  and  N_17
REMARK    5  A    between atoms: C_16  and  C_18
REMARK    6  A    between atoms: C_19  and  C_23
REMARK    7  A    between atoms: N_21  and  CA_24
REMARK    8  A    between atoms: CA_24  and  C_27
REMARK                            x       y       z     vdW  Elec       q    Type
REMARK                         _______ _______ _______ _____ _____    ______ ____
ROOT
ATOM      1  C   UNK A   1      20.337  42.358  43.484  0.00  0.00    +0.000 C 
ATOM      2  C   UNK A   1      19.065  41.957  43.293  0.00  0.00    +0.000 C 
ENDROOT
BRANCH   1   8
ATOM      3  C   UNK A   1      22.554  41.231  46.942  0.00  0.00    +0.000 A 
ATOM      4  C   UNK A   1      21.906  42.467  46.916  0.00  0.00    +0.000 A 
ATOM      5  C   UNK A   1      22.688  40.497  45.761  0.00  0.00    +0.000 A 
ATOM      6  C   UNK A   1      21.262  42.891  45.745  0.00  0.00    +0.000 A 
ATOM      7  C   UNK A   1      22.027  40.912  44.600  0.00  0.00    +0.000 A 
ATOM      8  C   UNK A   1      21.268  42.092  44.594  0.00  0.00    +0.000 A 
BRANCH   3   9
ATOM      9  O   UNK A   1      23.023  40.777  48.159  0.00  0.00    +0.000 OA
BRANCH   9  12
ATOM     10 BR   UNK A   1      25.817  40.673  46.828  0.00  0.00    +0.000 Br
ATOM     11  C   UNK A   1      25.268  41.598  48.391  0.00  0.00    +0.000 A 
ATOM     12  C   UNK A   1      23.940  41.565  48.838  0.00  0.00    +0.000 A 
ATOM     13  C   UNK A   1      26.236  42.329  49.093  0.00  0.00    +0.000 A 
ATOM     14  C   UNK A   1      23.582  42.357  49.940  0.00  0.00    +0.000 A 
ATOM     15  C   UNK A   1      25.878  43.049  50.233  0.00  0.00    +0.000 A 
ATOM     16  C   UNK A   1      24.550  43.075  50.648  0.00  0.00    +0.000 A 
ENDBRANCH   9  12
ENDBRANCH   3   9
ENDBRANCH   1   8
BRANCH   2  17
ATOM     17  N   UNK A   1      18.370  41.058  44.086  0.00  0.00    +0.000 N 
ATOM     18  C   UNK A   0      18.636  39.698  44.036  0.00  0.00    +0.000 C 
ATOM     19  O   UNK A   0      19.408  39.177  43.233  0.00  0.00    +0.000 OA
ATOM     20  H   UNK A   1      17.673  41.391  44.697  0.00  0.00    +0.000 HD
BRANCH  18  21
ATOM     21  C   UNK A   0      17.843  38.817  44.927  0.00  0.00    +0.000 A 
ATOM     22  C   UNK A   0      17.110  39.428  45.953  0.00  0.00    +0.000 A 
ATOM     23  C   UNK A   0      17.722  37.441  44.708  0.00  0.00    +0.000 A 
ATOM     24  C   UNK A   0      16.240  38.678  46.741  0.00  0.00    +0.000 A 
ATOM     25  C   UNK A   0      16.842  36.694  45.498  0.00  0.00    +0.000 A 
ATOM     26  C   UNK A   0      16.096  37.314  46.504  0.00  0.00    +0.000 A 
ENDBRANCH  18  21
ENDBRANCH   2  17
BRANCH   2  27
ATOM     27  C   UNK A   1      18.349  42.569  42.107  0.00  0.00    +0.000 C 
ATOM     28  O   UNK A   1      18.535  43.721  41.729  0.00  0.00    +0.000 OA
ATOM     29  N   GLY A   2      17.496  41.709  41.457  0.00  0.00    +0.000 N 
ATOM     30  H   GLY A   2      17.317  40.818  41.837  0.00  0.00    +0.000 HD
BRANCH  29  31
ATOM     31  CA  GLY A   2      16.854  42.104  40.213  0.00  0.00    +0.000 C 
BRANCH  31  32
ATOM     32  C   GLY A   2      15.521  41.388  40.047  0.00  0.00    +0.000 C 
ATOM     33  O   GLY A   2      14.815  41.034  40.983  0.00  0.00    +0.000 OA
ATOM     34  OXT GLY A   2      15.181  41.162  38.757  0.00  0.00    +0.000 OA
ENDBRANCH  31  32
ENDBRANCH  29  31
ENDBRANCH   2  27
TORSDOF 8
ENDMDL
MODEL 2
REMARK VINA RESULT:      -5.5      3.297      8.479
REMARK  Name = 323372
REMARK  8 active torsions:
REMARK  status: ('A' for Active; 'I' for Inactive)
REMARK    1  A    between atoms: C_3  and  O_5
REMARK    2  A    between atoms: O_5  and  C_8
REMARK    3  A    between atoms: C_14  and  C_15
REMARK    4  A    between atoms: C_16  and  N_17
REMARK    5  A    between atoms: C_16  and  C_18
REMARK    6  A    between atoms: C_19  and  C_23
REMARK    7  A    between atoms: N_21  and  CA_24
REMARK    8  A    between atoms: CA_24  and  C_27
REMARK                            x       y       z     vdW  Elec       q    Type
REMARK                         _______ _______ _______ _____ _____    ______ ____
ROOT
ATOM      1  C   UNK A   1      23.555  40.545  45.233  0.00  0.00    +0.000 C 
ATOM      2  C   UNK A   1      23.563  41.452  46.229  0.00  0.00    +0.000 C 
ENDROOT
BRANCH   1   8
ATOM      3  C   UNK A   1      19.966  39.243  43.345  0.00  0.00    +0.000 A 
ATOM      4  C   UNK A   1      20.788  38.307  43.973  0.00  0.00    +0.000 A 
ATOM      5  C   UNK A   1      20.441  40.536  43.116  0.00  0.00    +0.000 A 
ATOM      6  C   UNK A   1      22.021  38.709  44.506  0.00  0.00    +0.000 A 
ATOM      7  C   UNK A   1      21.662  40.940  43.666  0.00  0.00    +0.000 A 
ATOM      8  C   UNK A   1      22.444  40.041  44.408  0.00  0.00    +0.000 A 
BRANCH   3   9
ATOM      9  O   UNK A   1      18.691  38.845  42.991  0.00  0.00    +0.000 OA
BRANCH   9  12
ATOM     10 BR   UNK A   1      17.014  41.281  43.908  0.00  0.00    +0.000 Br
ATOM     11  C   UNK A   1      17.004  39.502  44.568  0.00  0.00    +0.000 A 
ATOM     12  C   UNK A   1      17.811  38.504  44.007  0.00  0.00    +0.000 A 
ATOM     13  C   UNK A   1      16.152  39.208  45.642  0.00  0.00    +0.000 A 
ATOM     14  C   UNK A   1      17.674  37.187  44.475  0.00  0.00    +0.000 A 
ATOM     15  C   UNK A   1      16.086  37.909  46.147  0.00  0.00    +0.000 A 
ATOM     16  C   UNK A   1      16.836  36.896  45.555  0.00  0.00    +0.000 A 
ENDBRANCH   9  12
ENDBRANCH   3   9
ENDBRANCH   1   8
BRANCH   2  17
ATOM     17  N   UNK A   1      22.491  42.235  46.623  0.00  0.00    +0.000 N 
ATOM     18  C   UNK A   0      21.325  41.666  47.113  0.00  0.00    +0.000 C 
ATOM     19  O   UNK A   0      21.108  40.456  47.138  0.00  0.00    +0.000 OA
ATOM     20  H   UNK A   1      22.557  43.215  46.553  0.00  0.00    +0.000 HD
BRANCH  18  21
ATOM     21  C   UNK A   0      20.235  42.588  47.513  0.00  0.00    +0.000 A 
ATOM     22  C   UNK A   0      19.564  43.276  46.493  0.00  0.00    +0.000 A 
ATOM     23  C   UNK A   0      19.798  42.703  48.836  0.00  0.00    +0.000 A 
ATOM     24  C   UNK A   0      18.446  44.054  46.784  0.00  0.00    +0.000 A 
ATOM     25  C   UNK A   0      18.670  43.481  49.123  0.00  0.00    +0.000 A 
ATOM     26  C   UNK A   0      17.991  44.144  48.098  0.00  0.00    +0.000 A 
ENDBRANCH  18  21
ENDBRANCH   2  17
BRANCH   2  27
ATOM     27  C   UNK A   1      24.872  41.599  46.979  0.00  0.00    +0.000 C 
ATOM     28  O   UNK A   1      25.965  41.341  46.484  0.00  0.00    +0.000 OA
ATOM     29  N   GLY A   2      24.739  42.087  48.257  0.00  0.00    +0.000 N 
ATOM     30  H   GLY A   2      23.841  42.207  48.642  0.00  0.00    +0.000 HD
BRANCH  29  31
ATOM     31  CA  GLY A   2      25.913  42.425  49.045  0.00  0.00    +0.000 C 
BRANCH  31  32
ATOM     32  C   GLY A   2      25.506  43.043  50.375  0.00  0.00    +0.000 C 
ATOM     33  O   GLY A   2      26.242  43.104  51.352  0.00  0.00    +0.000 OA
ATOM     34  OXT GLY A   2      24.239  43.517  50.391  0.00  0.00    +0.000 OA
ENDBRANCH  31  32
ENDBRANCH  29  31
ENDBRANCH   2  27
TORSDOF 8
ENDMDL
MODEL 3
REMARK VINA RESULT:      -4.8      2.723      4.378
REMARK  Name = 323372
REMARK  8 active torsions:
REMARK  status: ('A' for Active; 'I' for Inactive)
REMARK    1  A    between atoms: C_3  and  O_5
REMARK    2  A    between atoms: O_5  and  C_8
REMARK    3  A    between atoms: C_14  and  C_15
REMARK    4  A    between atoms: C_16  and  N_17
REMARK    5  A    between atoms: C_16  and  C_18
REMARK    6  A    between atoms: C_19  and  C_23
REMARK    7  A    between atoms: N_21  and  CA_24
REMARK    8  A    between atoms: CA_24  and  C_27
REMARK                            x       y       z     vdW  Elec       q    Type
REMARK                         _______ _______ _______ _____ _____    ______ ____
ROOT
ATOM      1  C   UNK A   1      20.898  39.197  44.323  0.00  0.00    +0.000 C 
ATOM      2  C   UNK A   1      19.649  39.668  44.499  0.00  0.00    +0.000 C 
ENDROOT
BRANCH   1   8
ATOM      3  C   UNK A   1      24.580  40.670  45.880  0.00  0.00    +0.000 A 
ATOM      4  C   UNK A   1      23.469  41.513  45.836  0.00  0.00    +0.000 A 
ATOM      5  C   UNK A   1      24.554  39.457  45.188  0.00  0.00    +0.000 A 
ATOM      6  C   UNK A   1      22.283  41.072  45.230  0.00  0.00    +0.000 A 
ATOM      7  C   UNK A   1      23.365  39.010  44.604  0.00  0.00    +0.000 A 
ATOM      8  C   UNK A   1      22.202  39.795  44.659  0.00  0.00    +0.000 A 
BRANCH   3   9
ATOM      9  O   UNK A   1      25.664  41.075  46.634  0.00  0.00    +0.000 OA
BRANCH   9  12
ATOM     10 BR   UNK A   1      23.663  39.469  48.369  0.00  0.00    +0.000 Br
ATOM     11  C   UNK A   1      24.497  41.134  48.732  0.00  0.00    +0.000 A 
ATOM     12  C   UNK A   1      25.416  41.707  47.843  0.00  0.00    +0.000 A 
ATOM     13  C   UNK A   1      24.171  41.781  49.932  0.00  0.00    +0.000 A 
ATOM     14  C   UNK A   1      26.074  42.888  48.224  0.00  0.00    +0.000 A 
ATOM     15  C   UNK A   1      24.777  42.994  50.260  0.00  0.00    +0.000 A 
ATOM     16  C   UNK A   1      25.739  43.540  49.414  0.00  0.00    +0.000 A 
ENDBRANCH   9  12
ENDBRANCH   3   9
ENDBRANCH   1   8
BRANCH   2  17
ATOM     17  N   UNK A   1      19.305  40.822  45.184  0.00  0.00    +0.000 N 
ATOM     18  C   UNK A   0      18.408  40.792  46.241  0.00  0.00    +0.000 C 
ATOM     19  O   UNK A   0      17.778  39.792  46.580  0.00  0.00    +0.000 OA
ATOM     20  H   UNK A   1      19.706  41.681  44.916  0.00  0.00    +0.000 HD
BRANCH  18  21
ATOM     21  C   UNK A   0      18.108  42.078  46.915  0.00  0.00    +0.000 A 
ATOM     22  C   UNK A   0      19.061  42.572  47.817  0.00  0.00    +0.000 A 
ATOM     23  C   UNK A   0      16.983  42.846  46.599  0.00  0.00    +0.000 A 
ATOM     24  C   UNK A   0      18.907  43.836  48.383  0.00  0.00    +0.000 A 
ATOM     25  C   UNK A   0      16.836  44.117  47.165  0.00  0.00    +0.000 A 
ATOM     26  C   UNK A   0      17.802  44.613  48.046  0.00  0.00    +0.000 A 
ENDBRANCH  18  21
ENDBRANCH   2  17
BRANCH   2  27
ATOM     27  C   UNK A   1      18.539  38.851  43.870  0.00  0.00    +0.000 C 
ATOM     28  O   UNK A   1      17.787  39.289  43.004  0.00  0.00    +0.000 OA
ATOM     29  N   GLY A   2      18.467  37.554  44.321  0.00  0.00    +0.000 N 
ATOM     30  H   GLY A   2      19.038  37.266  45.070  0.00  0.00    +0.000 HD
BRANCH  29  31
ATOM     31  CA  GLY A   2      17.555  36.606  43.703  0.00  0.00    +0.000 C 
BRANCH  31  32
ATOM     32  C   GLY A   2      16.629  35.995  44.745  0.00  0.00    +0.000 C 
ATOM     33  O   GLY A   2      16.322  34.810  44.773  0.00  0.00    +0.000 OA
ATOM     34  OXT GLY A   2      16.158  36.888  45.646  0.00  0.00    +0.000 OA
ENDBRANCH  31  32
ENDBRANCH  29  31
ENDBRANCH   2  27
TORSDOF 8
ENDMDL
MODEL 4
REMARK VINA RESULT:      -4.4      2.232      3.766
REMARK  Name = 323372
REMARK  8 active torsions:
REMARK  status: ('A' for Active; 'I' for Inactive)
REMARK    1  A    between atoms: C_3  and  O_5
REMARK    2  A    between atoms: O_5  and  C_8
REMARK    3  A    between atoms: C_14  and  C_15
REMARK    4  A    between atoms: C_16  and  N_17
REMARK    5  A    between atoms: C_16  and  C_18
REMARK    6  A    between atoms: C_19  and  C_23
REMARK    7  A    between atoms: N_21  and  CA_24
REMARK    8  A    between atoms: CA_24  and  C_27
REMARK                            x       y       z     vdW  Elec       q    Type
REMARK                         _______ _______ _______ _____ _____    ______ ____
ROOT
ATOM      1  C   UNK A   1      21.176  39.064  44.072  0.00  0.00    +0.000 C 
ATOM      2  C   UNK A   1      19.979  39.519  44.491  0.00  0.00    +0.000 C 
ENDROOT
BRANCH   1   8
ATOM      3  C   UNK A   1      24.868  40.102  45.923  0.00  0.00    +0.000 A 
ATOM      4  C   UNK A   1      24.096  41.100  45.328  0.00  0.00    +0.000 A 
ATOM      5  C   UNK A   1      24.563  38.760  45.687  0.00  0.00    +0.000 A 
ATOM      6  C   UNK A   1      22.932  40.755  44.626  0.00  0.00    +0.000 A 
ATOM      7  C   UNK A   1      23.391  38.418  45.005  0.00  0.00    +0.000 A 
ATOM      8  C   UNK A   1      22.539  39.416  44.507  0.00  0.00    +0.000 A 
BRANCH   3   9
ATOM      9  O   UNK A   1      25.905  40.496  46.748  0.00  0.00    +0.000 OA
BRANCH   9  12
ATOM     10 BR   UNK A   1      23.562  39.430  48.470  0.00  0.00    +0.000 Br
ATOM     11  C   UNK A   1      24.545  41.043  48.651  0.00  0.00    +0.000 A 
ATOM     12  C   UNK A   1      25.611  41.355  47.796  0.00  0.00    +0.000 A 
ATOM     13  C   UNK A   1      24.177  41.922  49.678  0.00  0.00    +0.000 A 
ATOM     14  C   UNK A   1      26.361  42.514  48.053  0.00  0.00    +0.000 A 
ATOM     15  C   UNK A   1      24.886  43.109  49.872  0.00  0.00    +0.000 A 
ATOM     16  C   UNK A   1      25.986  43.397  49.069  0.00  0.00    +0.000 A 
ENDBRANCH   9  12
ENDBRANCH   3   9
ENDBRANCH   1   8
BRANCH   2  17
ATOM     17  N   UNK A   1      19.764  40.368  45.564  0.00  0.00    +0.000 N 
ATOM     18  C   UNK A   0      19.438  41.702  45.372  0.00  0.00    +0.000 C 
ATOM     19  O   UNK A   0      19.419  42.255  44.274  0.00  0.00    +0.000 OA
ATOM     20  H   UNK A   1      19.844  40.017  46.481  0.00  0.00    +0.000 HD
BRANCH  18  21
ATOM     21  C   UNK A   0      19.222  42.529  46.584  0.00  0.00    +0.000 A 
ATOM     22  C   UNK A   0      18.292  43.575  46.495  0.00  0.00    +0.000 A 
ATOM     23  C   UNK A   0      19.823  42.234  47.811  0.00  0.00    +0.000 A 
ATOM     24  C   UNK A   0      17.942  44.305  47.629  0.00  0.00    +0.000 A 
ATOM     25  C   UNK A   0      19.464  42.966  48.948  0.00  0.00    +0.000 A 
ATOM     26  C   UNK A   0      18.518  43.991  48.857  0.00  0.00    +0.000 A 
ENDBRANCH  18  21
ENDBRANCH   2  17
BRANCH   2  27
ATOM     27  C   UNK A   1      18.779  39.056  43.691  0.00  0.00    +0.000 C 
ATOM     28  O   UNK A   1      18.480  37.874  43.546  0.00  0.00    +0.000 OA
ATOM     29  N   GLY A   2      18.020  40.077  43.169  0.00  0.00    +0.000 N 
ATOM     30  H   GLY A   2      18.336  41.006  43.242  0.00  0.00    +0.000 HD
BRANCH  29  31
ATOM     31  CA  GLY A   2      16.756  39.795  42.507  0.00  0.00    +0.000 C 
BRANCH  31  32
ATOM     32  C   GLY A   2      16.077  41.086  42.074  0.00  0.00    +0.000 C 
ATOM     33  O   GLY A   2      15.316  41.170  41.119  0.00  0.00    +0.000 OA
ATOM     34  OXT GLY A   2      16.401  42.155  42.839  0.00  0.00    +0.000 OA
ENDBRANCH  31  32
ENDBRANCH  29  31
ENDBRANCH   2  27
TORSDOF 8
ENDMDL
MODEL 5
REMARK VINA RESULT:      -4.0      2.265      3.468
REMARK  Name = 323372
REMARK  8 active torsions:
REMARK  status: ('A' for Active; 'I' for Inactive)
REMARK    1  A    between atoms: C_3  and  O_5
REMARK    2  A    between atoms: O_5  and  C_8
REMARK    3  A    between atoms: C_14  and  C_15
REMARK    4  A    between atoms: C_16  and  N_17
REMARK    5  A    between atoms: C_16  and  C_18
REMARK    6  A    between atoms: C_19  and  C_23
REMARK    7  A    between atoms: N_21  and  CA_24
REMARK    8  A    between atoms: CA_24  and  C_27
REMARK                            x       y       z     vdW  Elec       q    Type
REMARK                         _______ _______ _______ _____ _____    ______ ____
ROOT
ATOM      1  C   UNK A   1      20.505  39.401  44.047  0.00  0.00    +0.000 C 
ATOM      2  C   UNK A   1      19.336  40.040  44.242  0.00  0.00    +0.000 C 
ENDROOT
BRANCH   1   8
ATOM      3  C   UNK A   1      24.151  40.261  46.074  0.00  0.00    +0.000 A 
ATOM      4  C   UNK A   1      23.403  41.309  45.536  0.00  0.00    +0.000 A 
ATOM      5  C   UNK A   1      23.843  38.943  45.728  0.00  0.00    +0.000 A 
ATOM      6  C   UNK A   1      22.257  41.029  44.778  0.00  0.00    +0.000 A 
ATOM      7  C   UNK A   1      22.688  38.666  44.989  0.00  0.00    +0.000 A 
ATOM      8  C   UNK A   1      21.857  39.706  44.545  0.00  0.00    +0.000 A 
BRANCH   3   9
ATOM      9  O   UNK A   1      25.166  40.582  46.955  0.00  0.00    +0.000 OA
BRANCH   9  12
ATOM     10 BR   UNK A   1      27.718  41.505  48.446  0.00  0.00    +0.000 Br
ATOM     11  C   UNK A   1      25.900  41.878  48.838  0.00  0.00    +0.000 A 
ATOM     12  C   UNK A   1      24.860  41.405  48.028  0.00  0.00    +0.000 A 
ATOM     13  C   UNK A   1      25.622  42.655  49.971  0.00  0.00    +0.000 A 
ATOM     14  C   UNK A   1      23.546  41.807  48.318  0.00  0.00    +0.000 A 
ATOM     15  C   UNK A   1      24.302  42.982  50.288  0.00  0.00    +0.000 A 
ATOM     16  C   UNK A   1      23.267  42.570  49.455  0.00  0.00    +0.000 A 
ENDBRANCH   9  12
ENDBRANCH   3   9
ENDBRANCH   1   8
BRANCH   2  17
ATOM     17  N   UNK A   1      19.127  41.106  45.102  0.00  0.00    +0.000 N 
ATOM     18  C   UNK A   0      18.047  41.130  45.971  0.00  0.00    +0.000 C 
ATOM     19  O   UNK A   0      17.151  40.289  45.978  0.00  0.00    +0.000 OA
ATOM     20  H   UNK A   1      19.759  41.862  45.096  0.00  0.00    +0.000 HD
BRANCH  18  21
ATOM     21  C   UNK A   0      17.913  42.312  46.856  0.00  0.00    +0.000 A 
ATOM     22  C   UNK A   0      18.956  42.566  47.758  0.00  0.00    +0.000 A 
ATOM     23  C   UNK A   0      16.855  43.219  46.741  0.00  0.00    +0.000 A 
ATOM     24  C   UNK A   0      18.958  43.730  48.523  0.00  0.00    +0.000 A 
ATOM     25  C   UNK A   0      16.866  44.390  47.507  0.00  0.00    +0.000 A 
ATOM     26  C   UNK A   0      17.920  44.648  48.387  0.00  0.00    +0.000 A 
ENDBRANCH  18  21
ENDBRANCH   2  17
BRANCH   2  27
ATOM     27  C   UNK A   1      18.162  39.537  43.426  0.00  0.00    +0.000 C 
ATOM     28  O   UNK A   1      17.897  38.347  43.290  0.00  0.00    +0.000 OA
ATOM     29  N   GLY A   2      17.387  40.532  42.879  0.00  0.00    +0.000 N 
ATOM     30  H   GLY A   2      17.678  41.470  42.947  0.00  0.00    +0.000 HD
BRANCH  29  31
ATOM     31  CA  GLY A   2      16.144  40.210  42.198  0.00  0.00    +0.000 C 
BRANCH  31  32
ATOM     32  C   GLY A   2      15.900  41.172  41.044  0.00  0.00    +0.000 C 
ATOM     33  O   GLY A   2      14.815  41.314  40.492  0.00  0.00    +0.000 OA
ATOM     34  OXT GLY A   2      17.002  41.859  40.665  0.00  0.00    +0.000 OA
ENDBRANCH  31  32
ENDBRANCH  29  31
ENDBRANCH   2  27
TORSDOF 8
ENDMDL
MODEL 6
REMARK VINA RESULT:      -3.5      3.642      8.618
REMARK  Name = 323372
REMARK  8 active torsions:
REMARK  status: ('A' for Active; 'I' for Inactive)
REMARK    1  A    between atoms: C_3  and  O_5
REMARK    2  A    between atoms: O_5  and  C_8
REMARK    3  A    between atoms: C_14  and  C_15
REMARK    4  A    between atoms: C_16  and  N_17
REMARK    5  A    between atoms: C_16  and  C_18
REMARK    6  A    between atoms: C_19  and  C_23
REMARK    7  A    between atoms: N_21  and  CA_24
REMARK    8  A    between atoms: CA_24  and  C_27
REMARK                            x       y       z     vdW  Elec       q    Type
REMARK                         _______ _______ _______ _____ _____    ______ ____
ROOT
ATOM      1  C   UNK A   1      21.142  42.842  49.062  0.00  0.00    +0.000 C 
ATOM      2  C   UNK A   1      22.259  42.249  48.597  0.00  0.00    +0.000 C 
ENDROOT
BRANCH   1   8
ATOM      3  C   UNK A   1      17.447  42.668  46.951  0.00  0.00    +0.000 A 
ATOM      4  C   UNK A   1      18.154  43.871  46.996  0.00  0.00    +0.000 A 
ATOM      5  C   UNK A   1      17.814  41.619  47.797  0.00  0.00    +0.000 A 
ATOM      6  C   UNK A   1      19.317  43.966  47.775  0.00  0.00    +0.000 A 
ATOM      7  C   UNK A   1      18.985  41.709  48.556  0.00  0.00    +0.000 A 
ATOM      8  C   UNK A   1      19.774  42.869  48.516  0.00  0.00    +0.000 A 
BRANCH   3   9
ATOM      9  O   UNK A   1      16.413  42.565  46.041  0.00  0.00    +0.000 OA
BRANCH   9  12
ATOM     10 BR   UNK A   1      16.181  39.486  46.269  0.00  0.00    +0.000 Br
ATOM     11  C   UNK A   1      16.651  40.544  44.766  0.00  0.00    +0.000 A 
ATOM     12  C   UNK A   1      16.672  41.944  44.829  0.00  0.00    +0.000 A 
ATOM     13  C   UNK A   1      16.975  39.881  43.574  0.00  0.00    +0.000 A 
ATOM     14  C   UNK A   1      16.925  42.666  43.651  0.00  0.00    +0.000 A 
ATOM     15  C   UNK A   1      17.301  40.614  42.432  0.00  0.00    +0.000 A 
ATOM     16  C   UNK A   1      17.262  42.005  42.467  0.00  0.00    +0.000 A 
ENDBRANCH   9  12
ENDBRANCH   3   9
ENDBRANCH   1   8
BRANCH   2  17
ATOM     17  N   UNK A   1      22.329  41.389  47.514  0.00  0.00    +0.000 N 
ATOM     18  C   UNK A   0      22.177  41.851  46.215  0.00  0.00    +0.000 C 
ATOM     19  O   UNK A   0      21.869  43.006  45.928  0.00  0.00    +0.000 OA
ATOM     20  H   UNK A   1      22.490  40.429  47.669  0.00  0.00    +0.000 HD
BRANCH  18  21
ATOM     21  C   UNK A   0      22.274  40.853  45.123  0.00  0.00    +0.000 A 
ATOM     22  C   UNK A   0      23.332  39.935  45.178  0.00  0.00    +0.000 A 
ATOM     23  C   UNK A   0      21.301  40.736  44.125  0.00  0.00    +0.000 A 
ATOM     24  C   UNK A   0      23.407  38.890  44.261  0.00  0.00    +0.000 A 
ATOM     25  C   UNK A   0      21.378  39.680  43.210  0.00  0.00    +0.000 A 
ATOM     26  C   UNK A   0      22.422  38.755  43.286  0.00  0.00    +0.000 A 
ENDBRANCH  18  21
ENDBRANCH   2  17
BRANCH   2  27
ATOM     27  C   UNK A   1      23.540  42.581  49.334  0.00  0.00    +0.000 C 
ATOM     28  O   UNK A   1      23.577  42.867  50.527  0.00  0.00    +0.000 OA
ATOM     29  N   GLY A   2      24.674  42.494  48.562  0.00  0.00    +0.000 N 
ATOM     30  H   GLY A   2      24.594  42.338  47.593  0.00  0.00    +0.000 HD
BRANCH  29  31
ATOM     31  CA  GLY A   2      25.990  42.635  49.163  0.00  0.00    +0.000 C 
BRANCH  31  32
ATOM     32  C   GLY A   2      26.936  41.562  48.643  0.00  0.00    +0.000 C 
ATOM     33  O   GLY A   2      27.946  41.199  49.232  0.00  0.00    +0.000 OA
ATOM     34  OXT GLY A   2      26.566  41.042  47.449  0.00  0.00    +0.000 OA
ENDBRANCH  31  32
ENDBRANCH  29  31
ENDBRANCH   2  27
TORSDOF 8
ENDMDL
