MODEL 1
REMARK VINA RESULT:      -9.3      0.000      0.000
REMARK  Name = 322374
REMARK  9 active torsions:
REMARK  status: ('A' for Active; 'I' for Inactive)
REMARK    1  A    between atoms: C_3  and  O_5
REMARK    2  A    between atoms: O_5  and  C_8
REMARK    3  A    between atoms: C_14  and  C_15
REMARK    4  A    between atoms: CA_16  and  N_17
REMARK    5  A    between atoms: CA_16  and  C_18
REMARK    6  A    between atoms: C_19  and  C_23
REMARK    7  A    between atoms: C_23  and  C_24
REMARK    8  A    between atoms: C_24  and  C_25
REMARK    9  A    between atoms: C_30  and  C_31
REMARK                            x       y       z     vdW  Elec       q    Type
REMARK                         _______ _______ _______ _____ _____    ______ ____
ROOT
ATOM      1  C   UNL     1      19.690  41.670  43.575  0.00  0.00    +0.000 C 
ATOM      2  CA  UNL     1      18.454  41.151  43.464  0.00  0.00    +0.000 C 
ENDROOT
BRANCH   1   8
ATOM      3  C   UNL     1      22.187  41.245  46.974  0.00  0.00    +0.000 A 
ATOM      4  C   UNL     1      21.844  42.522  46.541  0.00  0.00    +0.000 A 
ATOM      5  C   UNL     1      21.960  40.146  46.140  0.00  0.00    +0.000 A 
ATOM      6  C   UNL     1      21.043  42.663  45.407  0.00  0.00    +0.000 A 
ATOM      7  C   UNL     1      21.226  40.297  44.961  0.00  0.00    +0.000 A 
ATOM      8  C   UNL     1      20.708  41.551  44.625  0.00  0.00    +0.000 A 
BRANCH   3   9
ATOM      9  O   UNL     1      22.728  40.956  48.201  0.00  0.00    +0.000 OA
BRANCH   9  12
ATOM     10 BR   UNL     1      25.668  40.701  46.450  0.00  0.00    +0.000 Br
ATOM     11  C   UNL     1      25.187  41.498  48.111  0.00  0.00    +0.000 A 
ATOM     12  C   UNL     1      23.888  41.559  48.644  0.00  0.00    +0.000 A 
ATOM     13  C   UNL     1      26.237  42.174  48.754  0.00  0.00    +0.000 A 
ATOM     14  C   UNL     1      23.653  42.428  49.724  0.00  0.00    +0.000 A 
ATOM     15  C   UNL     1      25.989  43.006  49.843  0.00  0.00    +0.000 A 
ATOM     16  C   UNL     1      24.689  43.161  50.306  0.00  0.00    +0.000 A 
ENDBRANCH   9  12
ENDBRANCH   3   9
ENDBRANCH   1   8
BRANCH   2  17
ATOM     17  N   UNL     1      17.847  40.251  44.338  0.00  0.00    +0.000 N 
ATOM     18  C   UNL     1      18.133  38.901  44.458  0.00  0.00    +0.000 C 
ATOM     19  O   UNL     1      18.807  38.236  43.686  0.00  0.00    +0.000 OA
ATOM     20  H   UNL     1      17.147  40.610  44.930  0.00  0.00    +0.000 HD
BRANCH  18  21
ATOM     21  C   UNL     1      17.380  38.231  45.589  0.00  0.00    +0.000 C 
BRANCH  21  22
ATOM     22  C   UNL     1      16.301  39.168  46.134  0.00  0.00    +0.000 C 
BRANCH  22  23
ATOM     23  C   UNL     1      16.901  40.457  46.629  0.00  0.00    +0.000 A 
ATOM     24  C   UNL     1      16.327  41.681  46.263  0.00  0.00    +0.000 A 
ATOM     25  C   UNL     1      18.055  40.455  47.418  0.00  0.00    +0.000 A 
ATOM     26  C   UNL     1      16.907  42.884  46.664  0.00  0.00    +0.000 A 
ATOM     27  C   UNL     1      18.635  41.660  47.820  0.00  0.00    +0.000 A 
ATOM     28  C   UNL     1      18.075  42.883  47.433  0.00  0.00    +0.000 A 
ATOM     29  C   UNL     1      18.731  44.169  47.837  0.00  0.00    +0.000 C 
ENDBRANCH  22  23
ENDBRANCH  21  22
ENDBRANCH  18  21
ENDBRANCH   2  17
BRANCH   2  30
ATOM     30  C   UNL     1      17.699  41.701  42.261  0.00  0.00    +0.000 C 
ATOM     31  O   UNL     1      16.695  41.189  41.788  0.00  0.00    +0.000 OA
ATOM     32  OXT UNL     1      18.206  42.826  41.720  0.00  0.00    +0.000 OA
ENDBRANCH   2  30
TORSDOF 8
ENDMDL
MODEL 2
REMARK VINA RESULT:      -8.8      2.927      7.518
REMARK  Name = 322374
REMARK  9 active torsions:
REMARK  status: ('A' for Active; 'I' for Inactive)
REMARK    1  A    between atoms: C_3  and  O_5
REMARK    2  A    between atoms: O_5  and  C_8
REMARK    3  A    between atoms: C_14  and  C_15
REMARK    4  A    between atoms: CA_16  and  N_17
REMARK    5  A    between atoms: CA_16  and  C_18
REMARK    6  A    between atoms: C_19  and  C_23
REMARK    7  A    between atoms: C_23  and  C_24
REMARK    8  A    between atoms: C_24  and  C_25
REMARK    9  A    between atoms: C_30  and  C_31
REMARK                            x       y       z     vdW  Elec       q    Type
REMARK                         _______ _______ _______ _____ _____    ______ ____
ROOT
ATOM      1  C   UNL     1      22.680  42.291  48.696  0.00  0.00    +0.000 C 
ATOM      2  CA  UNL     1      23.974  41.945  48.561  0.00  0.00    +0.000 C 
ENDROOT
BRANCH   1   8
ATOM      3  C   UNL     1      18.994  41.462  46.774  0.00  0.00    +0.000 A 
ATOM      4  C   UNL     1      19.903  40.427  46.969  0.00  0.00    +0.000 A 
ATOM      5  C   UNL     1      19.406  42.788  46.938  0.00  0.00    +0.000 A 
ATOM      6  C   UNL     1      21.128  40.705  47.578  0.00  0.00    +0.000 A 
ATOM      7  C   UNL     1      20.664  43.072  47.474  0.00  0.00    +0.000 A 
ATOM      8  C   UNL     1      21.505  42.024  47.857  0.00  0.00    +0.000 A 
BRANCH   3   9
ATOM      9  O   UNL     1      17.674  41.289  46.444  0.00  0.00    +0.000 OA
BRANCH   9  12
ATOM     10 BR   UNL     1      17.117  38.067  45.403  0.00  0.00    +0.000 Br
ATOM     11  C   UNL     1      17.085  39.760  44.530  0.00  0.00    +0.000 A 
ATOM     12  C   UNL     1      17.279  41.005  45.152  0.00  0.00    +0.000 A 
ATOM     13  C   UNL     1      16.709  39.706  43.177  0.00  0.00    +0.000 A 
ATOM     14  C   UNL     1      16.937  42.165  44.435  0.00  0.00    +0.000 A 
ATOM     15  C   UNL     1      16.405  40.869  42.475  0.00  0.00    +0.000 A 
ATOM     16  C   UNL     1      16.485  42.099  43.116  0.00  0.00    +0.000 A 
ENDBRANCH   9  12
ENDBRANCH   3   9
ENDBRANCH   1   8
BRANCH   2  17
ATOM     17  N   UNL     1      24.518  41.126  47.573  0.00  0.00    +0.000 N 
ATOM     18  C   UNL     1      24.289  39.770  47.412  0.00  0.00    +0.000 C 
ATOM     19  O   UNL     1      23.748  39.029  48.219  0.00  0.00    +0.000 OA
ATOM     20  H   UNL     1      25.122  41.554  46.924  0.00  0.00    +0.000 HD
BRANCH  18  21
ATOM     21  C   UNL     1      24.936  39.201  46.166  0.00  0.00    +0.000 C 
BRANCH  21  22
ATOM     22  C   UNL     1      23.910  38.415  45.348  0.00  0.00    +0.000 C 
BRANCH  22  23
ATOM     23  C   UNL     1      22.917  39.338  44.692  0.00  0.00    +0.000 A 
ATOM     24  C   UNL     1      23.128  40.722  44.715  0.00  0.00    +0.000 A 
ATOM     25  C   UNL     1      21.757  38.835  44.093  0.00  0.00    +0.000 A 
ATOM     26  C   UNL     1      22.187  41.591  44.164  0.00  0.00    +0.000 A 
ATOM     27  C   UNL     1      20.816  39.706  43.542  0.00  0.00    +0.000 A 
ATOM     28  C   UNL     1      21.015  41.090  43.587  0.00  0.00    +0.000 A 
ATOM     29  C   UNL     1      19.977  42.016  43.028  0.00  0.00    +0.000 C 
ENDBRANCH  22  23
ENDBRANCH  21  22
ENDBRANCH  18  21
ENDBRANCH   2  17
BRANCH   2  30
ATOM     30  C   UNL     1      24.863  42.605  49.605  0.00  0.00    +0.000 C 
ATOM     31  O   UNL     1      24.445  43.177  50.601  0.00  0.00    +0.000 OA
ATOM     32  OXT UNL     1      26.189  42.526  49.376  0.00  0.00    +0.000 OA
ENDBRANCH   2  30
TORSDOF 8
ENDMDL
MODEL 3
REMARK VINA RESULT:      -8.7      2.718      6.677
REMARK  Name = 322374
REMARK  9 active torsions:
REMARK  status: ('A' for Active; 'I' for Inactive)
REMARK    1  A    between atoms: C_3  and  O_5
REMARK    2  A    between atoms: O_5  and  C_8
REMARK    3  A    between atoms: C_14  and  C_15
REMARK    4  A    between atoms: CA_16  and  N_17
REMARK    5  A    between atoms: CA_16  and  C_18
REMARK    6  A    between atoms: C_19  and  C_23
REMARK    7  A    between atoms: C_23  and  C_24
REMARK    8  A    between atoms: C_24  and  C_25
REMARK    9  A    between atoms: C_30  and  C_31
REMARK                            x       y       z     vdW  Elec       q    Type
REMARK                         _______ _______ _______ _____ _____    ______ ____
ROOT
ATOM      1  C   UNL     1      25.009  41.101  47.188  0.00  0.00    +0.000 C 
ATOM      2  CA  UNL     1      24.598  41.820  48.248  0.00  0.00    +0.000 C 
ENDROOT
BRANCH   1   8
ATOM      3  C   UNL     1      22.415  39.399  44.298  0.00  0.00    +0.000 A 
ATOM      4  C   UNL     1      22.526  38.796  45.547  0.00  0.00    +0.000 A 
ATOM      5  C   UNL     1      23.352  40.360  43.907  0.00  0.00    +0.000 A 
ATOM      6  C   UNL     1      23.399  39.341  46.490  0.00  0.00    +0.000 A 
ATOM      7  C   UNL     1      24.281  40.852  44.827  0.00  0.00    +0.000 A 
ATOM      8  C   UNL     1      24.263  40.387  46.144  0.00  0.00    +0.000 A 
BRANCH   3   9
ATOM      9  O   UNL     1      21.419  39.139  43.392  0.00  0.00    +0.000 OA
BRANCH   9  12
ATOM     10 BR   UNL     1      18.365  37.718  44.045  0.00  0.00    +0.000 Br
ATOM     11  C   UNL     1      18.923  39.461  43.516  0.00  0.00    +0.000 A 
ATOM     12  C   UNL     1      20.255  39.880  43.358  0.00  0.00    +0.000 A 
ATOM     13  C   UNL     1      17.880  40.395  43.409  0.00  0.00    +0.000 A 
ATOM     14  C   UNL     1      20.509  41.259  43.252  0.00  0.00    +0.000 A 
ATOM     15  C   UNL     1      18.151  41.754  43.272  0.00  0.00    +0.000 A 
ATOM     16  C   UNL     1      19.469  42.191  43.230  0.00  0.00    +0.000 A 
ENDBRANCH   9  12
ENDBRANCH   3   9
ENDBRANCH   1   8
BRANCH   2  17
ATOM     17  N   UNL     1      23.283  42.148  48.573  0.00  0.00    +0.000 N 
ATOM     18  C   UNL     1      22.273  42.472  47.683  0.00  0.00    +0.000 C 
ATOM     19  O   UNL     1      22.412  42.728  46.496  0.00  0.00    +0.000 OA
ATOM     20  H   UNL     1      23.048  42.147  49.529  0.00  0.00    +0.000 HD
BRANCH  18  21
ATOM     21  C   UNL     1      20.926  42.658  48.352  0.00  0.00    +0.000 C 
BRANCH  21  22
ATOM     22  C   UNL     1      19.884  43.109  47.327  0.00  0.00    +0.000 C 
BRANCH  22  23
ATOM     23  C   UNL     1      18.851  42.038  47.096  0.00  0.00    +0.000 A 
ATOM     24  C   UNL     1      17.528  42.394  46.803  0.00  0.00    +0.000 A 
ATOM     25  C   UNL     1      19.183  40.684  47.213  0.00  0.00    +0.000 A 
ATOM     26  C   UNL     1      16.549  41.414  46.646  0.00  0.00    +0.000 A 
ATOM     27  C   UNL     1      18.201  39.703  47.055  0.00  0.00    +0.000 A 
ATOM     28  C   UNL     1      16.875  40.061  46.787  0.00  0.00    +0.000 A 
ATOM     29  C   UNL     1      15.824  38.999  46.661  0.00  0.00    +0.000 C 
ENDBRANCH  22  23
ENDBRANCH  21  22
ENDBRANCH  18  21
ENDBRANCH   2  17
BRANCH   2  30
ATOM     30  C   UNL     1      25.751  42.228  49.154  0.00  0.00    +0.000 C 
ATOM     31  O   UNL     1      25.635  42.958  50.127  0.00  0.00    +0.000 OA
ATOM     32  OXT UNL     1      26.958  41.725  48.824  0.00  0.00    +0.000 OA
ENDBRANCH   2  30
TORSDOF 8
ENDMDL
MODEL 4
REMARK VINA RESULT:      -8.4      1.159      2.930
REMARK  Name = 322374
REMARK  9 active torsions:
REMARK  status: ('A' for Active; 'I' for Inactive)
REMARK    1  A    between atoms: C_3  and  O_5
REMARK    2  A    between atoms: O_5  and  C_8
REMARK    3  A    between atoms: C_14  and  C_15
REMARK    4  A    between atoms: CA_16  and  N_17
REMARK    5  A    between atoms: CA_16  and  C_18
REMARK    6  A    between atoms: C_19  and  C_23
REMARK    7  A    between atoms: C_23  and  C_24
REMARK    8  A    between atoms: C_24  and  C_25
REMARK    9  A    between atoms: C_30  and  C_31
REMARK                            x       y       z     vdW  Elec       q    Type
REMARK                         _______ _______ _______ _____ _____    ______ ____
ROOT
ATOM      1  C   UNL     1      19.892  41.768  43.452  0.00  0.00    +0.000 C 
ATOM      2  CA  UNL     1      18.554  41.896  43.496  0.00  0.00    +0.000 C 
ENDROOT
BRANCH   1   8
ATOM      3  C   UNL     1      22.332  41.179  46.868  0.00  0.00    +0.000 A 
ATOM      4  C   UNL     1      21.985  42.475  46.499  0.00  0.00    +0.000 A 
ATOM      5  C   UNL     1      22.131  40.126  45.971  0.00  0.00    +0.000 A 
ATOM      6  C   UNL     1      21.203  42.671  45.360  0.00  0.00    +0.000 A 
ATOM      7  C   UNL     1      21.416  40.335  44.789  0.00  0.00    +0.000 A 
ATOM      8  C   UNL     1      20.893  41.601  44.512  0.00  0.00    +0.000 A 
BRANCH   3   9
ATOM      9  O   UNL     1      22.854  40.828  48.087  0.00  0.00    +0.000 OA
BRANCH   9  12
ATOM     10 BR   UNL     1      25.921  40.730  46.550  0.00  0.00    +0.000 Br
ATOM     11  C   UNL     1      25.286  41.478  48.183  0.00  0.00    +0.000 A 
ATOM     12  C   UNL     1      23.951  41.474  48.621  0.00  0.00    +0.000 A 
ATOM     13  C   UNL     1      26.257  42.188  48.910  0.00  0.00    +0.000 A 
ATOM     14  C   UNL     1      23.601  42.314  49.693  0.00  0.00    +0.000 A 
ATOM     15  C   UNL     1      25.894  42.990  49.989  0.00  0.00    +0.000 A 
ATOM     16  C   UNL     1      24.559  43.081  50.358  0.00  0.00    +0.000 A 
ENDBRANCH   9  12
ENDBRANCH   3   9
ENDBRANCH   1   8
BRANCH   2  17
ATOM     17  N   UNL     1      17.746  41.808  44.628  0.00  0.00    +0.000 N 
ATOM     18  C   UNL     1      17.541  42.802  45.571  0.00  0.00    +0.000 C 
ATOM     19  O   UNL     1      18.186  43.833  45.683  0.00  0.00    +0.000 OA
ATOM     20  H   UNL     1      17.273  40.957  44.771  0.00  0.00    +0.000 HD
BRANCH  18  21
ATOM     21  C   UNL     1      16.508  42.428  46.615  0.00  0.00    +0.000 C 
BRANCH  21  22
ATOM     22  C   UNL     1      17.057  41.336  47.534  0.00  0.00    +0.000 C 
BRANCH  22  23
ATOM     23  C   UNL     1      17.015  39.989  46.862  0.00  0.00    +0.000 A 
ATOM     24  C   UNL     1      18.152  39.499  46.206  0.00  0.00    +0.000 A 
ATOM     25  C   UNL     1      15.839  39.232  46.844  0.00  0.00    +0.000 A 
ATOM     26  C   UNL     1      18.109  38.281  45.528  0.00  0.00    +0.000 A 
ATOM     27  C   UNL     1      15.798  38.012  46.166  0.00  0.00    +0.000 A 
ATOM     28  C   UNL     1      16.926  37.536  45.489  0.00  0.00    +0.000 A 
ATOM     29  C   UNL     1      16.856  36.245  44.731  0.00  0.00    +0.000 C 
ENDBRANCH  22  23
ENDBRANCH  21  22
ENDBRANCH  18  21
ENDBRANCH   2  17
BRANCH   2  30
ATOM     30  C   UNL     1      17.957  42.222  42.134  0.00  0.00    +0.000 C 
ATOM     31  O   UNL     1      18.293  43.174  41.446  0.00  0.00    +0.000 OA
ATOM     32  OXT UNL     1      17.002  41.375  41.699  0.00  0.00    +0.000 OA
ENDBRANCH   2  30
TORSDOF 8
ENDMDL
MODEL 5
REMARK VINA RESULT:      -8.4      1.358      2.040
REMARK  Name = 322374
REMARK  9 active torsions:
REMARK  status: ('A' for Active; 'I' for Inactive)
REMARK    1  A    between atoms: C_3  and  O_5
REMARK    2  A    between atoms: O_5  and  C_8
REMARK    3  A    between atoms: C_14  and  C_15
REMARK    4  A    between atoms: CA_16  and  N_17
REMARK    5  A    between atoms: CA_16  and  C_18
REMARK    6  A    between atoms: C_19  and  C_23
REMARK    7  A    between atoms: C_23  and  C_24
REMARK    8  A    between atoms: C_24  and  C_25
REMARK    9  A    between atoms: C_30  and  C_31
REMARK                            x       y       z     vdW  Elec       q    Type
REMARK                         _______ _______ _______ _____ _____    ______ ____
ROOT
ATOM      1  C   UNL     1      18.709  41.348  42.887  0.00  0.00    +0.000 C 
ATOM      2  CA  UNL     1      17.411  41.025  43.033  0.00  0.00    +0.000 C 
ENDROOT
BRANCH   1   8
ATOM      3  C   UNL     1      21.493  41.496  46.081  0.00  0.00    +0.000 A 
ATOM      4  C   UNL     1      21.109  42.682  45.461  0.00  0.00    +0.000 A 
ATOM      5  C   UNL     1      21.200  40.271  45.475  0.00  0.00    +0.000 A 
ATOM      6  C   UNL     1      20.213  42.631  44.393  0.00  0.00    +0.000 A 
ATOM      7  C   UNL     1      20.365  40.222  44.356  0.00  0.00    +0.000 A 
ATOM      8  C   UNL     1      19.815  41.403  43.851  0.00  0.00    +0.000 A 
BRANCH   3   9
ATOM      9  O   UNL     1      22.140  41.420  47.288  0.00  0.00    +0.000 OA
BRANCH   9  12
ATOM     10 BR   UNL     1      23.766  42.665  50.041  0.00  0.00    +0.000 Br
ATOM     11  C   UNL     1      24.350  41.954  48.374  0.00  0.00    +0.000 A 
ATOM     12  C   UNL     1      23.518  41.420  47.375  0.00  0.00    +0.000 A 
ATOM     13  C   UNL     1      25.746  41.868  48.239  0.00  0.00    +0.000 A 
ATOM     14  C   UNL     1      24.114  40.675  46.342  0.00  0.00    +0.000 A 
ATOM     15  C   UNL     1      26.318  41.151  47.190  0.00  0.00    +0.000 A 
ATOM     16  C   UNL     1      25.499  40.524  46.260  0.00  0.00    +0.000 A 
ENDBRANCH   9  12
ENDBRANCH   3   9
ENDBRANCH   1   8
BRANCH   2  17
ATOM     17  N   UNL     1      16.795  40.554  44.191  0.00  0.00    +0.000 N 
ATOM     18  C   UNL     1      16.925  39.286  44.734  0.00  0.00    +0.000 C 
ATOM     19  O   UNL     1      17.426  38.316  44.187  0.00  0.00    +0.000 OA
ATOM     20  H   UNL     1      16.211  41.184  44.671  0.00  0.00    +0.000 HD
BRANCH  18  21
ATOM     21  C   UNL     1      16.220  39.134  46.066  0.00  0.00    +0.000 C 
BRANCH  21  22
ATOM     22  C   UNL     1      17.178  39.461  47.212  0.00  0.00    +0.000 C 
BRANCH  22  23
ATOM     23  C   UNL     1      17.497  40.932  47.250  0.00  0.00    +0.000 A 
ATOM     24  C   UNL     1      18.664  41.378  47.884  0.00  0.00    +0.000 A 
ATOM     25  C   UNL     1      16.621  41.871  46.696  0.00  0.00    +0.000 A 
ATOM     26  C   UNL     1      18.942  42.741  47.979  0.00  0.00    +0.000 A 
ATOM     27  C   UNL     1      16.900  43.236  46.791  0.00  0.00    +0.000 A 
ATOM     28  C   UNL     1      18.053  43.682  47.447  0.00  0.00    +0.000 A 
ATOM     29  C   UNL     1      18.320  45.151  47.578  0.00  0.00    +0.000 C 
ENDBRANCH  22  23
ENDBRANCH  21  22
ENDBRANCH  18  21
ENDBRANCH   2  17
BRANCH   2  30
ATOM     30  C   UNL     1      16.604  41.283  41.768  0.00  0.00    +0.000 C 
ATOM     31  O   UNL     1      15.439  40.948  41.617  0.00  0.00    +0.000 OA
ATOM     32  OXT UNL     1      17.257  41.928  40.781  0.00  0.00    +0.000 OA
ENDBRANCH   2  30
TORSDOF 8
ENDMDL
MODEL 6
REMARK VINA RESULT:      -8.3      2.020      4.191
REMARK  Name = 322374
REMARK  9 active torsions:
REMARK  status: ('A' for Active; 'I' for Inactive)
REMARK    1  A    between atoms: C_3  and  O_5
REMARK    2  A    between atoms: O_5  and  C_8
REMARK    3  A    between atoms: C_14  and  C_15
REMARK    4  A    between atoms: CA_16  and  N_17
REMARK    5  A    between atoms: CA_16  and  C_18
REMARK    6  A    between atoms: C_19  and  C_23
REMARK    7  A    between atoms: C_23  and  C_24
REMARK    8  A    between atoms: C_24  and  C_25
REMARK    9  A    between atoms: C_30  and  C_31
REMARK                            x       y       z     vdW  Elec       q    Type
REMARK                         _______ _______ _______ _____ _____    ______ ____
ROOT
ATOM      1  C   UNL     1      17.914  39.877  46.968  0.00  0.00    +0.000 C 
ATOM      2  CA  UNL     1      16.996  39.706  46.000  0.00  0.00    +0.000 C 
ENDROOT
BRANCH   1   8
ATOM      3  C   UNL     1      21.485  42.060  47.643  0.00  0.00    +0.000 A 
ATOM      4  C   UNL     1      20.312  42.752  47.361  0.00  0.00    +0.000 A 
ATOM      5  C   UNL     1      21.549  40.681  47.417  0.00  0.00    +0.000 A 
ATOM      6  C   UNL     1      19.142  42.033  47.113  0.00  0.00    +0.000 A 
ATOM      7  C   UNL     1      20.393  39.969  47.090  0.00  0.00    +0.000 A 
ATOM      8  C   UNL     1      19.169  40.638  47.001  0.00  0.00    +0.000 A 
BRANCH   3   9
ATOM      9  O   UNL     1      22.621  42.627  48.162  0.00  0.00    +0.000 OA
BRANCH   9  12
ATOM     10 BR   UNL     1      25.173  42.974  50.430  0.00  0.00    +0.000 Br
ATOM     11  C   UNL     1      25.047  42.201  48.694  0.00  0.00    +0.000 A 
ATOM     12  C   UNL     1      23.872  42.093  47.929  0.00  0.00    +0.000 A 
ATOM     13  C   UNL     1      26.231  41.596  48.243  0.00  0.00    +0.000 A 
ATOM     14  C   UNL     1      23.886  41.245  46.808  0.00  0.00    +0.000 A 
ATOM     15  C   UNL     1      26.231  40.783  47.112  0.00  0.00    +0.000 A 
ATOM     16  C   UNL     1      25.048  40.579  46.414  0.00  0.00    +0.000 A 
ENDBRANCH   9  12
ENDBRANCH   3   9
ENDBRANCH   1   8
BRANCH   2  17
ATOM     17  N   UNL     1      16.981  40.322  44.750  0.00  0.00    +0.000 N 
ATOM     18  C   UNL     1      16.831  41.677  44.503  0.00  0.00    +0.000 C 
ATOM     19  O   UNL     1      16.481  42.523  45.312  0.00  0.00    +0.000 OA
ATOM     20  H   UNL     1      17.089  39.738  43.965  0.00  0.00    +0.000 HD
BRANCH  18  21
ATOM     21  C   UNL     1      16.981  42.035  43.038  0.00  0.00    +0.000 C 
BRANCH  21  22
ATOM     22  C   UNL     1      18.355  42.655  42.784  0.00  0.00    +0.000 C 
BRANCH  22  23
ATOM     23  C   UNL     1      19.459  41.713  43.185  0.00  0.00    +0.000 A 
ATOM     24  C   UNL     1      20.671  42.221  43.668  0.00  0.00    +0.000 A 
ATOM     25  C   UNL     1      19.309  40.330  43.040  0.00  0.00    +0.000 A 
ATOM     26  C   UNL     1      21.723  41.362  43.986  0.00  0.00    +0.000 A 
ATOM     27  C   UNL     1      20.362  39.470  43.359  0.00  0.00    +0.000 A 
ATOM     28  C   UNL     1      21.582  39.980  43.819  0.00  0.00    +0.000 A 
ATOM     29  C   UNL     1      22.718  39.050  44.119  0.00  0.00    +0.000 C 
ENDBRANCH  22  23
ENDBRANCH  21  22
ENDBRANCH  18  21
ENDBRANCH   2  17
BRANCH   2  30
ATOM     30  C   UNL     1      15.938  38.680  46.378  0.00  0.00    +0.000 C 
ATOM     31  O   UNL     1      15.823  37.584  45.848  0.00  0.00    +0.000 OA
ATOM     32  OXT UNL     1      15.099  39.045  47.367  0.00  0.00    +0.000 OA
ENDBRANCH   2  30
TORSDOF 8
ENDMDL
MODEL 7
REMARK VINA RESULT:      -8.2      2.911      7.442
REMARK  Name = 322374
REMARK  9 active torsions:
REMARK  status: ('A' for Active; 'I' for Inactive)
REMARK    1  A    between atoms: C_3  and  O_5
REMARK    2  A    between atoms: O_5  and  C_8
REMARK    3  A    between atoms: C_14  and  C_15
REMARK    4  A    between atoms: CA_16  and  N_17
REMARK    5  A    between atoms: CA_16  and  C_18
REMARK    6  A    between atoms: C_19  and  C_23
REMARK    7  A    between atoms: C_23  and  C_24
REMARK    8  A    between atoms: C_24  and  C_25
REMARK    9  A    between atoms: C_30  and  C_31
REMARK                            x       y       z     vdW  Elec       q    Type
REMARK                         _______ _______ _______ _____ _____    ______ ____
ROOT
ATOM      1  C   UNL     1      22.766  42.355  48.522  0.00  0.00    +0.000 C 
ATOM      2  CA  UNL     1      24.044  41.944  48.438  0.00  0.00    +0.000 C 
ENDROOT
BRANCH   1   8
ATOM      3  C   UNL     1      19.095  41.714  46.499  0.00  0.00    +0.000 A 
ATOM      4  C   UNL     1      19.869  40.616  46.862  0.00  0.00    +0.000 A 
ATOM      5  C   UNL     1      19.651  42.997  46.535  0.00  0.00    +0.000 A 
ATOM      6  C   UNL     1      21.090  40.828  47.504  0.00  0.00    +0.000 A 
ATOM      7  C   UNL     1      20.909  43.202  47.107  0.00  0.00    +0.000 A 
ATOM      8  C   UNL     1      21.605  42.121  47.653  0.00  0.00    +0.000 A 
BRANCH   3   9
ATOM      9  O   UNL     1      17.780  41.649  46.116  0.00  0.00    +0.000 OA
BRANCH   9  12
ATOM     10 BR   UNL     1      17.223  40.275  43.021  0.00  0.00    +0.000 Br
ATOM     11  C   UNL     1      16.739  39.774  44.794  0.00  0.00    +0.000 A 
ATOM     12  C   UNL     1      17.125  40.443  45.968  0.00  0.00    +0.000 A 
ATOM     13  C   UNL     1      16.042  38.557  44.881  0.00  0.00    +0.000 A 
ATOM     14  C   UNL     1      16.934  39.789  47.198  0.00  0.00    +0.000 A 
ATOM     15  C   UNL     1      15.837  37.940  46.113  0.00  0.00    +0.000 A 
ATOM     16  C   UNL     1      16.315  38.541  47.270  0.00  0.00    +0.000 A 
ENDBRANCH   9  12
ENDBRANCH   3   9
ENDBRANCH   1   8
BRANCH   2  17
ATOM     17  N   UNL     1      24.577  41.071  47.491  0.00  0.00    +0.000 N 
ATOM     18  C   UNL     1      24.306  39.717  47.376  0.00  0.00    +0.000 C 
ATOM     19  O   UNL     1      23.726  39.026  48.200  0.00  0.00    +0.000 OA
ATOM     20  H   UNL     1      25.207  41.454  46.839  0.00  0.00    +0.000 HD
BRANCH  18  21
ATOM     21  C   UNL     1      24.955  39.081  46.164  0.00  0.00    +0.000 C 
BRANCH  21  22
ATOM     22  C   UNL     1      23.915  38.309  45.351  0.00  0.00    +0.000 C 
BRANCH  22  23
ATOM     23  C   UNL     1      22.949  39.245  44.676  0.00  0.00    +0.000 A 
ATOM     24  C   UNL     1      23.226  40.617  44.622  0.00  0.00    +0.000 A 
ATOM     25  C   UNL     1      21.749  38.771  44.135  0.00  0.00    +0.000 A 
ATOM     26  C   UNL     1      22.312  41.503  44.053  0.00  0.00    +0.000 A 
ATOM     27  C   UNL     1      20.835  39.659  43.564  0.00  0.00    +0.000 A 
ATOM     28  C   UNL     1      21.101  41.033  43.534  0.00  0.00    +0.000 A 
ATOM     29  C   UNL     1      20.093  41.979  42.956  0.00  0.00    +0.000 C 
ENDBRANCH  22  23
ENDBRANCH  21  22
ENDBRANCH  18  21
ENDBRANCH   2  17
BRANCH   2  30
ATOM     30  C   UNL     1      24.932  42.590  49.492  0.00  0.00    +0.000 C 
ATOM     31  O   UNL     1      24.513  43.129  50.506  0.00  0.00    +0.000 OA
ATOM     32  OXT UNL     1      26.256  42.537  49.250  0.00  0.00    +0.000 OA
ENDBRANCH   2  30
TORSDOF 8
ENDMDL
MODEL 8
REMARK VINA RESULT:      -7.6      1.892      3.988
REMARK  Name = 322374
REMARK  9 active torsions:
REMARK  status: ('A' for Active; 'I' for Inactive)
REMARK    1  A    between atoms: C_3  and  O_5
REMARK    2  A    between atoms: O_5  and  C_8
REMARK    3  A    between atoms: C_14  and  C_15
REMARK    4  A    between atoms: CA_16  and  N_17
REMARK    5  A    between atoms: CA_16  and  C_18
REMARK    6  A    between atoms: C_19  and  C_23
REMARK    7  A    between atoms: C_23  and  C_24
REMARK    8  A    between atoms: C_24  and  C_25
REMARK    9  A    between atoms: C_30  and  C_31
REMARK                            x       y       z     vdW  Elec       q    Type
REMARK                         _______ _______ _______ _____ _____    ______ ____
ROOT
ATOM      1  C   UNL     1      17.957  39.935  47.279  0.00  0.00    +0.000 C 
ATOM      2  CA  UNL     1      17.007  40.157  46.353  0.00  0.00    +0.000 C 
ENDROOT
BRANCH   1   8
ATOM      3  C   UNL     1      21.790  41.745  47.278  0.00  0.00    +0.000 A 
ATOM      4  C   UNL     1      21.697  40.357  47.235  0.00  0.00    +0.000 A 
ATOM      5  C   UNL     1      20.666  42.506  47.613  0.00  0.00    +0.000 A 
ATOM      6  C   UNL     1      20.435  39.760  47.261  0.00  0.00    +0.000 A 
ATOM      7  C   UNL     1      19.412  41.898  47.718  0.00  0.00    +0.000 A 
ATOM      8  C   UNL     1      19.285  40.528  47.478  0.00  0.00    +0.000 A 
BRANCH   3   9
ATOM      9  O   UNL     1      22.925  42.460  46.992  0.00  0.00    +0.000 OA
BRANCH   9  12
ATOM     10 BR   UNL     1      25.407  40.535  45.608  0.00  0.00    +0.000 Br
ATOM     11  C   UNL     1      25.199  41.415  47.285  0.00  0.00    +0.000 A 
ATOM     12  C   UNL     1      24.115  42.230  47.652  0.00  0.00    +0.000 A 
ATOM     13  C   UNL     1      26.309  41.303  48.138  0.00  0.00    +0.000 A 
ATOM     14  C   UNL     1      24.248  43.035  48.798  0.00  0.00    +0.000 A 
ATOM     15  C   UNL     1      26.408  42.086  49.286  0.00  0.00    +0.000 A 
ATOM     16  C   UNL     1      25.392  42.980  49.597  0.00  0.00    +0.000 A 
ENDBRANCH   9  12
ENDBRANCH   3   9
ENDBRANCH   1   8
BRANCH   2  17
ATOM     17  N   UNL     1      17.030  41.127  45.353  0.00  0.00    +0.000 N 
ATOM     18  C   UNL     1      16.876  42.492  45.527  0.00  0.00    +0.000 C 
ATOM     19  O   UNL     1      16.489  43.050  46.544  0.00  0.00    +0.000 OA
ATOM     20  H   UNL     1      17.172  40.811  44.431  0.00  0.00    +0.000 HD
BRANCH  18  21
ATOM     21  C   UNL     1      17.075  43.282  44.250  0.00  0.00    +0.000 C 
BRANCH  21  22
ATOM     22  C   UNL     1      17.319  42.335  43.075  0.00  0.00    +0.000 C 
BRANCH  22  23
ATOM     23  C   UNL     1      18.622  41.597  43.234  0.00  0.00    +0.000 A 
ATOM     24  C   UNL     1      18.640  40.196  43.206  0.00  0.00    +0.000 A 
ATOM     25  C   UNL     1      19.817  42.289  43.454  0.00  0.00    +0.000 A 
ATOM     26  C   UNL     1      19.830  39.499  43.412  0.00  0.00    +0.000 A 
ATOM     27  C   UNL     1      21.008  41.590  43.660  0.00  0.00    +0.000 A 
ATOM     28  C   UNL     1      21.021  40.191  43.657  0.00  0.00    +0.000 A 
ATOM     29  C   UNL     1      22.298  39.453  43.920  0.00  0.00    +0.000 C 
ENDBRANCH  22  23
ENDBRANCH  21  22
ENDBRANCH  18  21
ENDBRANCH   2  17
BRANCH   2  30
ATOM     30  C   UNL     1      15.855  39.167  46.455  0.00  0.00    +0.000 C 
ATOM     31  O   UNL     1      14.916  39.282  47.229  0.00  0.00    +0.000 OA
ATOM     32  OXT UNL     1      15.915  38.115  45.615  0.00  0.00    +0.000 OA
ENDBRANCH   2  30
TORSDOF 8
ENDMDL
MODEL 9
REMARK VINA RESULT:      -7.3      1.801      3.404
REMARK  Name = 322374
REMARK  9 active torsions:
REMARK  status: ('A' for Active; 'I' for Inactive)
REMARK    1  A    between atoms: C_3  and  O_5
REMARK    2  A    between atoms: O_5  and  C_8
REMARK    3  A    between atoms: C_14  and  C_15
REMARK    4  A    between atoms: CA_16  and  N_17
REMARK    5  A    between atoms: CA_16  and  C_18
REMARK    6  A    between atoms: C_19  and  C_23
REMARK    7  A    between atoms: C_23  and  C_24
REMARK    8  A    between atoms: C_24  and  C_25
REMARK    9  A    between atoms: C_30  and  C_31
REMARK                            x       y       z     vdW  Elec       q    Type
REMARK                         _______ _______ _______ _____ _____    ______ ____
ROOT
ATOM      1  C   UNL     1      21.281  39.345  44.068  0.00  0.00    +0.000 C 
ATOM      2  CA  UNL     1      20.138  40.003  44.333  0.00  0.00    +0.000 C 
ENDROOT
BRANCH   1   8
ATOM      3  C   UNL     1      24.987  40.161  45.958  0.00  0.00    +0.000 A 
ATOM      4  C   UNL     1      24.585  40.952  44.886  0.00  0.00    +0.000 A 
ATOM      5  C   UNL     1      24.332  38.952  46.212  0.00  0.00    +0.000 A 
ATOM      6  C   UNL     1      23.378  40.668  44.247  0.00  0.00    +0.000 A 
ATOM      7  C   UNL     1      23.165  38.626  45.518  0.00  0.00    +0.000 A 
ATOM      8  C   UNL     1      22.648  39.519  44.575  0.00  0.00    +0.000 A 
BRANCH   3   9
ATOM      9  O   UNL     1      25.993  40.485  46.833  0.00  0.00    +0.000 OA
BRANCH   9  12
ATOM     10 BR   UNL     1      22.822  41.224  47.916  0.00  0.00    +0.000 Br
ATOM     11  C   UNL     1      24.563  41.778  48.455  0.00  0.00    +0.000 A 
ATOM     12  C   UNL     1      25.774  41.304  47.922  0.00  0.00    +0.000 A 
ATOM     13  C   UNL     1      24.578  42.640  49.564  0.00  0.00    +0.000 A 
ATOM     14  C   UNL     1      26.962  41.587  48.619  0.00  0.00    +0.000 A 
ATOM     15  C   UNL     1      25.770  42.934  50.222  0.00  0.00    +0.000 A 
ATOM     16  C   UNL     1      26.959  42.378  49.770  0.00  0.00    +0.000 A 
ENDBRANCH   9  12
ENDBRANCH   3   9
ENDBRANCH   1   8
BRANCH   2  17
ATOM     17  N   UNL     1      19.958  41.013  45.276  0.00  0.00    +0.000 N 
ATOM     18  C   UNL     1      19.839  42.369  45.017  0.00  0.00    +0.000 C 
ATOM     19  O   UNL     1      20.077  42.923  43.955  0.00  0.00    +0.000 OA
ATOM     20  H   UNL     1      19.909  40.736  46.220  0.00  0.00    +0.000 HD
BRANCH  18  21
ATOM     21  C   UNL     1      19.530  43.186  46.255  0.00  0.00    +0.000 C 
BRANCH  21  22
ATOM     22  C   UNL     1      18.024  43.195  46.521  0.00  0.00    +0.000 C 
BRANCH  22  23
ATOM     23  C   UNL     1      17.446  41.808  46.415  0.00  0.00    +0.000 A 
ATOM     24  C   UNL     1      17.756  40.846  47.384  0.00  0.00    +0.000 A 
ATOM     25  C   UNL     1      16.633  41.450  45.334  0.00  0.00    +0.000 A 
ATOM     26  C   UNL     1      17.276  39.542  47.266  0.00  0.00    +0.000 A 
ATOM     27  C   UNL     1      16.153  40.144  45.217  0.00  0.00    +0.000 A 
ATOM     28  C   UNL     1      16.484  39.177  46.172  0.00  0.00    +0.000 A 
ATOM     29  C   UNL     1      15.996  37.769  46.013  0.00  0.00    +0.000 C 
ENDBRANCH  22  23
ENDBRANCH  21  22
ENDBRANCH  18  21
ENDBRANCH   2  17
BRANCH   2  30
ATOM     30  C   UNL     1      18.996  39.570  43.425  0.00  0.00    +0.000 C 
ATOM     31  O   UNL     1      18.431  40.309  42.632  0.00  0.00    +0.000 OA
ATOM     32  OXT UNL     1      18.621  38.280  43.535  0.00  0.00    +0.000 OA
ENDBRANCH   2  30
TORSDOF 8
ENDMDL
