MODEL 1
REMARK VINA RESULT:      -7.5      0.000      0.000
REMARK  Name = 323637
REMARK  8 active torsions:
REMARK  status: ('A' for Active; 'I' for Inactive)
REMARK    1  A    between atoms: C_3  and  O_5
REMARK    2  A    between atoms: O_5  and  C_8
REMARK    3  A    between atoms: C_14  and  C_15
REMARK    4  A    between atoms: CA_16  and  N_17
REMARK    5  A    between atoms: CA_16  and  C_18
REMARK    6  A    between atoms: C_19  and  C_23
REMARK    7  A    between atoms: C_23  and  C_24
REMARK    8  A    between atoms: C_24  and  C_25
REMARK                            x       y       z     vdW  Elec       q    Type
REMARK                         _______ _______ _______ _____ _____    ______ ____
ROOT
ATOM      1  C   UNL     1      22.661  42.244  48.481  0.00  0.00    +0.000 C 
ATOM      2  CA  UNL     1      23.747  41.687  47.909  0.00  0.00    +0.000 C 
ENDROOT
BRANCH   1   8
ATOM      3  C   UNL     1      18.668  42.203  47.092  0.00  0.00    +0.000 A 
ATOM      4  C   UNL     1      18.961  42.925  48.258  0.00  0.00    +0.000 A 
ATOM      5  C   UNL     1      19.564  41.260  46.622  0.00  0.00    +0.000 A 
ATOM      6  C   UNL     1      20.258  42.893  48.770  0.00  0.00    +0.000 A 
ATOM      7  C   UNL     1      20.862  41.237  47.124  0.00  0.00    +0.000 A 
ATOM      8  C   UNL     1      21.240  42.104  48.154  0.00  0.00    +0.000 A 
BRANCH   3   9
ATOM      9  O   UNL     1      17.525  42.375  46.352  0.00  0.00    +0.000 OA
BRANCH   9  12
ATOM     10  I   UNL     1      16.305  38.928  46.652  0.00  0.00    +0.000 I 
ATOM     11  C   UNL     1      16.867  40.270  45.110  0.00  0.00    +0.000 A 
ATOM     12  C   UNL     1      17.236  41.621  45.234  0.00  0.00    +0.000 A 
ATOM     13  C   UNL     1      16.657  39.713  43.834  0.00  0.00    +0.000 A 
ATOM     14  C   UNL     1      17.228  42.420  44.070  0.00  0.00    +0.000 A 
ATOM     15  C   UNL     1      16.662  40.522  42.695  0.00  0.00    +0.000 A 
ATOM     16  C   UNL     1      16.914  41.875  42.822  0.00  0.00    +0.000 A 
ENDBRANCH   9  12
ENDBRANCH   3   9
ENDBRANCH   1   8
BRANCH   2  17
ATOM     17  N   UNL     1      23.761  40.832  46.814  0.00  0.00    +0.000 N 
ATOM     18  C   UNL     1      23.681  39.445  46.878  0.00  0.00    +0.000 C 
ATOM     19  O   UNL     1      23.488  38.798  47.901  0.00  0.00    +0.000 OA
ATOM     20  H   UNL     1      23.833  41.241  45.921  0.00  0.00    +0.000 HD
BRANCH  18  21
ATOM     21  C   UNL     1      23.759  38.734  45.544  0.00  0.00    +0.000 C 
BRANCH  21  22
ATOM     22  C   UNL     1      23.826  39.785  44.420  0.00  0.00    +0.000 C 
BRANCH  22  23
ATOM     23  C   UNL     1      22.538  39.901  43.619  0.00  0.00    +0.000 C 
ATOM     24  C   UNL     1      21.892  41.288  43.706  0.00  0.00    +0.000 C 
ATOM     25  C   UNL     1      21.413  39.008  44.134  0.00  0.00    +0.000 C 
ATOM     26  C   UNL     1      20.450  41.059  43.252  0.00  0.00    +0.000 C 
ATOM     27  C   UNL     1      20.186  39.562  43.422  0.00  0.00    +0.000 C 
ENDBRANCH  22  23
ENDBRANCH  21  22
ENDBRANCH  18  21
ENDBRANCH   2  17
BRANCH   2  28
ATOM     28  C   UNL     1      25.044  42.039  48.605  0.00  0.00    +0.000 C 
ATOM     29  O   UNL     1      26.156  41.658  48.272  0.00  0.00    +0.000 OA
ATOM     30  OXT UNL     1      24.857  42.788  49.724  0.00  0.00    +0.000 OA
ENDBRANCH   2  28
TORSDOF 8
ENDMDL
MODEL 2
REMARK VINA RESULT:      -7.5      3.042      7.446
REMARK  Name = 323637
REMARK  8 active torsions:
REMARK  status: ('A' for Active; 'I' for Inactive)
REMARK    1  A    between atoms: C_3  and  O_5
REMARK    2  A    between atoms: O_5  and  C_8
REMARK    3  A    between atoms: C_14  and  C_15
REMARK    4  A    between atoms: CA_16  and  N_17
REMARK    5  A    between atoms: CA_16  and  C_18
REMARK    6  A    between atoms: C_19  and  C_23
REMARK    7  A    between atoms: C_23  and  C_24
REMARK    8  A    between atoms: C_24  and  C_25
REMARK                            x       y       z     vdW  Elec       q    Type
REMARK                         _______ _______ _______ _____ _____    ______ ____
ROOT
ATOM      1  C   UNL     1      19.411  41.960  43.470  0.00  0.00    +0.000 C 
ATOM      2  CA  UNL     1      18.123  41.562  43.455  0.00  0.00    +0.000 C 
ENDROOT
BRANCH   1   8
ATOM      3  C   UNL     1      21.887  41.509  46.867  0.00  0.00    +0.000 A 
ATOM      4  C   UNL     1      21.435  42.794  46.538  0.00  0.00    +0.000 A 
ATOM      5  C   UNL     1      21.824  40.495  45.928  0.00  0.00    +0.000 A 
ATOM      6  C   UNL     1      20.675  42.973  45.382  0.00  0.00    +0.000 A 
ATOM      7  C   UNL     1      21.055  40.669  44.782  0.00  0.00    +0.000 A 
ATOM      8  C   UNL     1      20.415  41.887  44.535  0.00  0.00    +0.000 A 
BRANCH   3   9
ATOM      9  O   UNL     1      22.395  41.167  48.095  0.00  0.00    +0.000 OA
BRANCH   9  12
ATOM     10  I   UNL     1      25.535  40.619  46.279  0.00  0.00    +0.000 I 
ATOM     11  C   UNL     1      24.906  41.480  48.111  0.00  0.00    +0.000 A 
ATOM     12  C   UNL     1      23.590  41.658  48.574  0.00  0.00    +0.000 A 
ATOM     13  C   UNL     1      25.981  42.066  48.806  0.00  0.00    +0.000 A 
ATOM     14  C   UNL     1      23.380  42.559  49.641  0.00  0.00    +0.000 A 
ATOM     15  C   UNL     1      25.749  42.948  49.864  0.00  0.00    +0.000 A 
ATOM     16  C   UNL     1      24.450  43.215  50.253  0.00  0.00    +0.000 A 
ENDBRANCH   9  12
ENDBRANCH   3   9
ENDBRANCH   1   8
BRANCH   2  17
ATOM     17  N   UNL     1      17.421  40.987  44.507  0.00  0.00    +0.000 N 
ATOM     18  C   UNL     1      16.898  41.677  45.595  0.00  0.00    +0.000 C 
ATOM     19  O   UNL     1      16.899  42.897  45.721  0.00  0.00    +0.000 OA
ATOM     20  H   UNL     1      17.283  40.013  44.480  0.00  0.00    +0.000 HD
BRANCH  18  21
ATOM     21  C   UNL     1      16.209  40.817  46.632  0.00  0.00    +0.000 C 
BRANCH  21  22
ATOM     22  C   UNL     1      17.251  39.885  47.281  0.00  0.00    +0.000 C 
BRANCH  22  23
ATOM     23  C   UNL     1      17.307  38.503  46.648  0.00  0.00    +0.000 C 
ATOM     24  C   UNL     1      18.202  38.439  45.407  0.00  0.00    +0.000 C 
ATOM     25  C   UNL     1      15.970  38.032  46.084  0.00  0.00    +0.000 C 
ATOM     26  C   UNL     1      17.763  37.161  44.693  0.00  0.00    +0.000 C 
ATOM     27  C   UNL     1      16.364  36.839  45.224  0.00  0.00    +0.000 C 
ENDBRANCH  22  23
ENDBRANCH  21  22
ENDBRANCH  18  21
ENDBRANCH   2  17
BRANCH   2  28
ATOM     28  C   UNL     1      17.447  41.755  42.115  0.00  0.00    +0.000 C 
ATOM     29  O   UNL     1      17.808  42.528  41.241  0.00  0.00    +0.000 OA
ATOM     30  OXT UNL     1      16.312  41.018  41.984  0.00  0.00    +0.000 OA
ENDBRANCH   2  28
TORSDOF 8
ENDMDL
MODEL 3
REMARK VINA RESULT:      -7.4      2.992      7.425
REMARK  Name = 323637
REMARK  8 active torsions:
REMARK  status: ('A' for Active; 'I' for Inactive)
REMARK    1  A    between atoms: C_3  and  O_5
REMARK    2  A    between atoms: O_5  and  C_8
REMARK    3  A    between atoms: C_14  and  C_15
REMARK    4  A    between atoms: CA_16  and  N_17
REMARK    5  A    between atoms: CA_16  and  C_18
REMARK    6  A    between atoms: C_19  and  C_23
REMARK    7  A    between atoms: C_23  and  C_24
REMARK    8  A    between atoms: C_24  and  C_25
REMARK                            x       y       z     vdW  Elec       q    Type
REMARK                         _______ _______ _______ _____ _____    ______ ____
ROOT
ATOM      1  C   UNL     1      19.333  41.648  43.450  0.00  0.00    +0.000 C 
ATOM      2  CA  UNL     1      18.043  41.256  43.457  0.00  0.00    +0.000 C 
ENDROOT
BRANCH   1   8
ATOM      3  C   UNL     1      21.841  41.336  46.840  0.00  0.00    +0.000 A 
ATOM      4  C   UNL     1      21.660  42.599  46.258  0.00  0.00    +0.000 A 
ATOM      5  C   UNL     1      21.507  40.197  46.131  0.00  0.00    +0.000 A 
ATOM      6  C   UNL     1      20.893  42.711  45.099  0.00  0.00    +0.000 A 
ATOM      7  C   UNL     1      20.730  40.307  44.981  0.00  0.00    +0.000 A 
ATOM      8  C   UNL     1      20.356  41.565  44.496  0.00  0.00    +0.000 A 
BRANCH   3   9
ATOM      9  O   UNL     1      22.331  41.140  48.107  0.00  0.00    +0.000 OA
BRANCH   9  12
ATOM     10  I   UNL     1      25.393  40.576  46.167  0.00  0.00    +0.000 I 
ATOM     11  C   UNL     1      24.839  41.464  48.011  0.00  0.00    +0.000 A 
ATOM     12  C   UNL     1      23.543  41.643  48.527  0.00  0.00    +0.000 A 
ATOM     13  C   UNL     1      25.940  42.064  48.650  0.00  0.00    +0.000 A 
ATOM     14  C   UNL     1      23.374  42.560  49.588  0.00  0.00    +0.000 A 
ATOM     15  C   UNL     1      25.748  42.962  49.703  0.00  0.00    +0.000 A 
ATOM     16  C   UNL     1      24.467  43.230  50.144  0.00  0.00    +0.000 A 
ENDBRANCH   9  12
ENDBRANCH   3   9
ENDBRANCH   1   8
BRANCH   2  17
ATOM     17  N   UNL     1      17.358  40.679  44.519  0.00  0.00    +0.000 N 
ATOM     18  C   UNL     1      17.282  39.315  44.778  0.00  0.00    +0.000 C 
ATOM     19  O   UNL     1      17.891  38.447  44.163  0.00  0.00    +0.000 OA
ATOM     20  H   UNL     1      16.888  41.284  45.137  0.00  0.00    +0.000 HD
BRANCH  18  21
ATOM     21  C   UNL     1      16.438  38.933  45.974  0.00  0.00    +0.000 C 
BRANCH  21  22
ATOM     22  C   UNL     1      16.959  39.683  47.215  0.00  0.00    +0.000 C 
BRANCH  22  23
ATOM     23  C   UNL     1      17.539  41.053  46.898  0.00  0.00    +0.000 C 
ATOM     24  C   UNL     1      18.515  41.561  47.964  0.00  0.00    +0.000 C 
ATOM     25  C   UNL     1      16.500  42.170  46.880  0.00  0.00    +0.000 C 
ATOM     26  C   UNL     1      18.604  43.065  47.706  0.00  0.00    +0.000 C 
ATOM     27  C   UNL     1      17.353  43.431  46.903  0.00  0.00    +0.000 C 
ENDBRANCH  22  23
ENDBRANCH  21  22
ENDBRANCH  18  21
ENDBRANCH   2  17
BRANCH   2  28
ATOM     28  C   UNL     1      17.344  41.459  42.131  0.00  0.00    +0.000 C 
ATOM     29  O   UNL     1      17.716  42.205  41.238  0.00  0.00    +0.000 OA
ATOM     30  OXT UNL     1      16.178  40.767  42.037  0.00  0.00    +0.000 OA
ENDBRANCH   2  28
TORSDOF 8
ENDMDL
MODEL 4
REMARK VINA RESULT:      -7.3      1.714      4.205
REMARK  Name = 323637
REMARK  8 active torsions:
REMARK  status: ('A' for Active; 'I' for Inactive)
REMARK    1  A    between atoms: C_3  and  O_5
REMARK    2  A    between atoms: O_5  and  C_8
REMARK    3  A    between atoms: C_14  and  C_15
REMARK    4  A    between atoms: CA_16  and  N_17
REMARK    5  A    between atoms: CA_16  and  C_18
REMARK    6  A    between atoms: C_19  and  C_23
REMARK    7  A    between atoms: C_23  and  C_24
REMARK    8  A    between atoms: C_24  and  C_25
REMARK                            x       y       z     vdW  Elec       q    Type
REMARK                         _______ _______ _______ _____ _____    ______ ____
ROOT
ATOM      1  C   UNL     1      25.399  40.617  46.966  0.00  0.00    +0.000 C 
ATOM      2  CA  UNL     1      25.114  41.560  47.886  0.00  0.00    +0.000 C 
ENDROOT
BRANCH   1   8
ATOM      3  C   UNL     1      22.550  39.208  44.179  0.00  0.00    +0.000 A 
ATOM      4  C   UNL     1      23.101  38.294  45.089  0.00  0.00    +0.000 A 
ATOM      5  C   UNL     1      23.169  40.427  43.966  0.00  0.00    +0.000 A 
ATOM      6  C   UNL     1      24.093  38.725  45.969  0.00  0.00    +0.000 A 
ATOM      7  C   UNL     1      24.149  40.862  44.853  0.00  0.00    +0.000 A 
ATOM      8  C   UNL     1      24.568  40.042  45.906  0.00  0.00    +0.000 A 
BRANCH   3   9
ATOM      9  O   UNL     1      21.398  38.981  43.468  0.00  0.00    +0.000 OA
BRANCH   9  12
ATOM     10  I   UNL     1      17.995  37.998  44.424  0.00  0.00    +0.000 I 
ATOM     11  C   UNL     1      18.978  39.702  43.635  0.00  0.00    +0.000 A 
ATOM     12  C   UNL     1      20.356  39.882  43.422  0.00  0.00    +0.000 A 
ATOM     13  C   UNL     1      18.096  40.790  43.491  0.00  0.00    +0.000 A 
ATOM     14  C   UNL     1      20.830  41.198  43.226  0.00  0.00    +0.000 A 
ATOM     15  C   UNL     1      18.588  42.082  43.290  0.00  0.00    +0.000 A 
ATOM     16  C   UNL     1      19.951  42.284  43.192  0.00  0.00    +0.000 A 
ENDBRANCH   9  12
ENDBRANCH   3   9
ENDBRANCH   1   8
BRANCH   2  17
ATOM     17  N   UNL     1      23.898  42.212  48.054  0.00  0.00    +0.000 N 
ATOM     18  C   UNL     1      22.656  41.590  48.120  0.00  0.00    +0.000 C 
ATOM     19  O   UNL     1      22.477  40.378  48.139  0.00  0.00    +0.000 OA
ATOM     20  H   UNL     1      23.918  43.193  48.133  0.00  0.00    +0.000 HD
BRANCH  18  21
ATOM     21  C   UNL     1      21.475  42.525  48.264  0.00  0.00    +0.000 C 
BRANCH  21  22
ATOM     22  C   UNL     1      20.599  42.423  47.001  0.00  0.00    +0.000 C 
BRANCH  22  23
ATOM     23  C   UNL     1      19.106  42.473  47.292  0.00  0.00    +0.000 C 
ATOM     24  C   UNL     1      18.376  41.172  46.943  0.00  0.00    +0.000 C 
ATOM     25  C   UNL     1      18.349  43.485  46.438  0.00  0.00    +0.000 C 
ATOM     26  C   UNL     1      16.904  41.576  46.865  0.00  0.00    +0.000 C 
ATOM     27  C   UNL     1      16.894  43.092  46.654  0.00  0.00    +0.000 C 
ENDBRANCH  22  23
ENDBRANCH  21  22
ENDBRANCH  18  21
ENDBRANCH   2  17
BRANCH   2  28
ATOM     28  C   UNL     1      26.291  41.924  48.764  0.00  0.00    +0.000 C 
ATOM     29  O   UNL     1      27.394  41.400  48.727  0.00  0.00    +0.000 OA
ATOM     30  OXT UNL     1      25.988  42.875  49.687  0.00  0.00    +0.000 OA
ENDBRANCH   2  28
TORSDOF 8
ENDMDL
MODEL 5
REMARK VINA RESULT:      -6.6      1.967      4.310
REMARK  Name = 323637
REMARK  8 active torsions:
REMARK  status: ('A' for Active; 'I' for Inactive)
REMARK    1  A    between atoms: C_3  and  O_5
REMARK    2  A    between atoms: O_5  and  C_8
REMARK    3  A    between atoms: C_14  and  C_15
REMARK    4  A    between atoms: CA_16  and  N_17
REMARK    5  A    between atoms: CA_16  and  C_18
REMARK    6  A    between atoms: C_19  and  C_23
REMARK    7  A    between atoms: C_23  and  C_24
REMARK    8  A    between atoms: C_24  and  C_25
REMARK                            x       y       z     vdW  Elec       q    Type
REMARK                         _______ _______ _______ _____ _____    ______ ____
ROOT
ATOM      1  C   UNL     1      24.323  40.580  45.994  0.00  0.00    +0.000 C 
ATOM      2  CA  UNL     1      24.190  41.409  47.048  0.00  0.00    +0.000 C 
ENDROOT
BRANCH   1   8
ATOM      3  C   UNL     1      21.113  39.476  43.474  0.00  0.00    +0.000 A 
ATOM      4  C   UNL     1      21.982  38.473  43.924  0.00  0.00    +0.000 A 
ATOM      5  C   UNL     1      21.493  40.803  43.553  0.00  0.00    +0.000 A 
ATOM      6  C   UNL     1      23.086  38.827  44.699  0.00  0.00    +0.000 A 
ATOM      7  C   UNL     1      22.586  41.158  44.337  0.00  0.00    +0.000 A 
ATOM      8  C   UNL     1      23.350  40.175  44.976  0.00  0.00    +0.000 A 
BRANCH   3   9
ATOM      9  O   UNL     1      19.868  39.232  42.951  0.00  0.00    +0.000 OA
BRANCH   9  12
ATOM     10  I   UNL     1      17.223  41.775  42.988  0.00  0.00    +0.000 I 
ATOM     11  C   UNL     1      17.674  39.958  43.984  0.00  0.00    +0.000 A 
ATOM     12  C   UNL     1      18.743  39.080  43.733  0.00  0.00    +0.000 A 
ATOM     13  C   UNL     1      16.644  39.580  44.865  0.00  0.00    +0.000 A 
ATOM     14  C   UNL     1      18.662  37.772  44.259  0.00  0.00    +0.000 A 
ATOM     15  C   UNL     1      16.589  38.282  45.379  0.00  0.00    +0.000 A 
ATOM     16  C   UNL     1      17.579  37.376  45.047  0.00  0.00    +0.000 A 
ENDBRANCH   9  12
ENDBRANCH   3   9
ENDBRANCH   1   8
BRANCH   2  17
ATOM     17  N   UNL     1      23.035  42.079  47.435  0.00  0.00    +0.000 N 
ATOM     18  C   UNL     1      21.792  41.487  47.632  0.00  0.00    +0.000 C 
ATOM     19  O   UNL     1      21.572  40.282  47.587  0.00  0.00    +0.000 OA
ATOM     20  H   UNL     1      23.103  43.050  47.582  0.00  0.00    +0.000 HD
BRANCH  18  21
ATOM     21  C   UNL     1      20.679  42.439  48.012  0.00  0.00    +0.000 C 
BRANCH  21  22
ATOM     22  C   UNL     1      20.261  43.244  46.766  0.00  0.00    +0.000 C 
BRANCH  22  23
ATOM     23  C   UNL     1      18.778  43.141  46.446  0.00  0.00    +0.000 C 
ATOM     24  C   UNL     1      17.938  44.241  47.104  0.00  0.00    +0.000 C 
ATOM     25  C   UNL     1      18.116  41.882  46.998  0.00  0.00    +0.000 C 
ATOM     26  C   UNL     1      16.507  43.704  47.049  0.00  0.00    +0.000 C 
ATOM     27  C   UNL     1      16.631  42.190  46.864  0.00  0.00    +0.000 C 
ENDBRANCH  22  23
ENDBRANCH  21  22
ENDBRANCH  18  21
ENDBRANCH   2  17
BRANCH   2  28
ATOM     28  C   UNL     1      25.474  41.617  47.820  0.00  0.00    +0.000 C 
ATOM     29  O   UNL     1      26.554  41.109  47.553  0.00  0.00    +0.000 OA
ATOM     30  OXT UNL     1      25.309  42.390  48.925  0.00  0.00    +0.000 OA
ENDBRANCH   2  28
TORSDOF 8
ENDMDL
MODEL 6
REMARK VINA RESULT:      -6.2      3.068      7.123
REMARK  Name = 323637
REMARK  8 active torsions:
REMARK  status: ('A' for Active; 'I' for Inactive)
REMARK    1  A    between atoms: C_3  and  O_5
REMARK    2  A    between atoms: O_5  and  C_8
REMARK    3  A    between atoms: C_14  and  C_15
REMARK    4  A    between atoms: CA_16  and  N_17
REMARK    5  A    between atoms: CA_16  and  C_18
REMARK    6  A    between atoms: C_19  and  C_23
REMARK    7  A    between atoms: C_23  and  C_24
REMARK    8  A    between atoms: C_24  and  C_25
REMARK                            x       y       z     vdW  Elec       q    Type
REMARK                         _______ _______ _______ _____ _____    ______ ____
ROOT
ATOM      1  C   UNL     1      19.380  42.828  44.173  0.00  0.00    +0.000 C 
ATOM      2  CA  UNL     1      18.746  41.919  43.405  0.00  0.00    +0.000 C 
ENDROOT
BRANCH   1   8
ATOM      3  C   UNL     1      21.623  41.820  47.611  0.00  0.00    +0.000 A 
ATOM      4  C   UNL     1      20.226  41.855  47.714  0.00  0.00    +0.000 A 
ATOM      5  C   UNL     1      22.251  42.432  46.542  0.00  0.00    +0.000 A 
ATOM      6  C   UNL     1      19.472  42.252  46.610  0.00  0.00    +0.000 A 
ATOM      7  C   UNL     1      21.501  42.817  45.435  0.00  0.00    +0.000 A 
ATOM      8  C   UNL     1      20.110  42.663  45.432  0.00  0.00    +0.000 A 
BRANCH   3   9
ATOM      9  O   UNL     1      22.442  41.194  48.517  0.00  0.00    +0.000 OA
BRANCH   9  12
ATOM     10  I   UNL     1      25.345  40.461  46.397  0.00  0.00    +0.000 I 
ATOM     11  C   UNL     1      24.949  41.420  48.246  0.00  0.00    +0.000 A 
ATOM     12  C   UNL     1      23.698  41.662  48.841  0.00  0.00    +0.000 A 
ATOM     13  C   UNL     1      26.111  41.996  48.792  0.00  0.00    +0.000 A 
ATOM     14  C   UNL     1      23.633  42.614  49.882  0.00  0.00    +0.000 A 
ATOM     15  C   UNL     1      26.023  42.930  49.827  0.00  0.00    +0.000 A 
ATOM     16  C   UNL     1      24.784  43.258  50.343  0.00  0.00    +0.000 A 
ENDBRANCH   9  12
ENDBRANCH   3   9
ENDBRANCH   1   8
BRANCH   2  17
ATOM     17  N   UNL     1      18.619  40.559  43.664  0.00  0.00    +0.000 N 
ATOM     18  C   UNL     1      19.647  39.627  43.573  0.00  0.00    +0.000 C 
ATOM     19  O   UNL     1      20.822  39.894  43.350  0.00  0.00    +0.000 OA
ATOM     20  H   UNL     1      17.732  40.230  43.934  0.00  0.00    +0.000 HD
BRANCH  18  21
ATOM     21  C   UNL     1      19.246  38.197  43.866  0.00  0.00    +0.000 C 
BRANCH  21  22
ATOM     22  C   UNL     1      17.744  38.158  44.206  0.00  0.00    +0.000 C 
BRANCH  22  23
ATOM     23  C   UNL     1      17.422  38.684  45.597  0.00  0.00    +0.000 C 
ATOM     24  C   UNL     1      16.452  37.788  46.375  0.00  0.00    +0.000 C 
ATOM     25  C   UNL     1      16.672  40.012  45.592  0.00  0.00    +0.000 C 
ATOM     26  C   UNL     1      15.920  38.690  47.488  0.00  0.00    +0.000 C 
ATOM     27  C   UNL     1      16.172  40.127  47.025  0.00  0.00    +0.000 C 
ENDBRANCH  22  23
ENDBRANCH  21  22
ENDBRANCH  18  21
ENDBRANCH   2  17
BRANCH   2  28
ATOM     28  C   UNL     1      18.172  42.498  42.131  0.00  0.00    +0.000 C 
ATOM     29  O   UNL     1      17.332  41.964  41.422  0.00  0.00    +0.000 OA
ATOM     30  OXT UNL     1      18.744  43.681  41.783  0.00  0.00    +0.000 OA
ENDBRANCH   2  28
TORSDOF 8
ENDMDL
MODEL 7
REMARK VINA RESULT:      -6.1      2.450      7.457
REMARK  Name = 323637
REMARK  8 active torsions:
REMARK  status: ('A' for Active; 'I' for Inactive)
REMARK    1  A    between atoms: C_3  and  O_5
REMARK    2  A    between atoms: O_5  and  C_8
REMARK    3  A    between atoms: C_14  and  C_15
REMARK    4  A    between atoms: CA_16  and  N_17
REMARK    5  A    between atoms: CA_16  and  C_18
REMARK    6  A    between atoms: C_19  and  C_23
REMARK    7  A    between atoms: C_23  and  C_24
REMARK    8  A    between atoms: C_24  and  C_25
REMARK                            x       y       z     vdW  Elec       q    Type
REMARK                         _______ _______ _______ _____ _____    ______ ____
ROOT
ATOM      1  C   UNL     1      21.194  39.244  43.882  0.00  0.00    +0.000 C 
ATOM      2  CA  UNL     1      20.033  39.844  44.213  0.00  0.00    +0.000 C 
ENDROOT
BRANCH   1   8
ATOM      3  C   UNL     1      24.863  40.101  45.800  0.00  0.00    +0.000 A 
ATOM      4  C   UNL     1      24.454  40.928  44.744  0.00  0.00    +0.000 A 
ATOM      5  C   UNL     1      24.277  38.860  45.970  0.00  0.00    +0.000 A 
ATOM      6  C   UNL     1      23.282  40.620  44.054  0.00  0.00    +0.000 A 
ATOM      7  C   UNL     1      23.100  38.558  45.292  0.00  0.00    +0.000 A 
ATOM      8  C   UNL     1      22.553  39.468  44.380  0.00  0.00    +0.000 A 
BRANCH   3   9
ATOM      9  O   UNL     1      25.826  40.447  46.714  0.00  0.00    +0.000 OA
BRANCH   9  12
ATOM     10  I   UNL     1      22.402  41.141  47.833  0.00  0.00    +0.000 I 
ATOM     11  C   UNL     1      24.369  41.774  48.304  0.00  0.00    +0.000 A 
ATOM     12  C   UNL     1      25.580  41.288  47.779  0.00  0.00    +0.000 A 
ATOM     13  C   UNL     1      24.382  42.665  49.393  0.00  0.00    +0.000 A 
ATOM     14  C   UNL     1      26.772  41.591  48.474  0.00  0.00    +0.000 A 
ATOM     15  C   UNL     1      25.575  42.956  50.060  0.00  0.00    +0.000 A 
ATOM     16  C   UNL     1      26.756  42.392  49.618  0.00  0.00    +0.000 A 
ENDBRANCH   9  12
ENDBRANCH   3   9
ENDBRANCH   1   8
BRANCH   2  17
ATOM     17  N   UNL     1      19.864  40.874  45.130  0.00  0.00    +0.000 N 
ATOM     18  C   UNL     1      19.741  42.222  44.808  0.00  0.00    +0.000 C 
ATOM     19  O   UNL     1      19.666  42.670  43.670  0.00  0.00    +0.000 OA
ATOM     20  H   UNL     1      19.828  40.631  46.083  0.00  0.00    +0.000 HD
BRANCH  18  21
ATOM     21  C   UNL     1      19.609  43.156  45.991  0.00  0.00    +0.000 C 
BRANCH  21  22
ATOM     22  C   UNL     1      18.116  43.446  46.236  0.00  0.00    +0.000 C 
BRANCH  22  23
ATOM     23  C   UNL     1      17.339  42.243  46.750  0.00  0.00    +0.000 C 
ATOM     24  C   UNL     1      18.228  41.184  47.410  0.00  0.00    +0.000 C 
ATOM     25  C   UNL     1      16.665  41.431  45.648  0.00  0.00    +0.000 C 
ATOM     26  C   UNL     1      17.363  39.923  47.423  0.00  0.00    +0.000 C 
ATOM     27  C   UNL     1      16.284  40.140  46.360  0.00  0.00    +0.000 C 
ENDBRANCH  22  23
ENDBRANCH  21  22
ENDBRANCH  18  21
ENDBRANCH   2  17
BRANCH   2  28
ATOM     28  C   UNL     1      18.829  39.260  43.507  0.00  0.00    +0.000 C 
ATOM     29  O   UNL     1      18.059  39.878  42.786  0.00  0.00    +0.000 OA
ATOM     30  OXT UNL     1      18.621  37.952  43.810  0.00  0.00    +0.000 OA
ENDBRANCH   2  28
TORSDOF 8
ENDMDL
MODEL 8
REMARK VINA RESULT:      -5.6      2.953      6.933
REMARK  Name = 323637
REMARK  8 active torsions:
REMARK  status: ('A' for Active; 'I' for Inactive)
REMARK    1  A    between atoms: C_3  and  O_5
REMARK    2  A    between atoms: O_5  and  C_8
REMARK    3  A    between atoms: C_14  and  C_15
REMARK    4  A    between atoms: CA_16  and  N_17
REMARK    5  A    between atoms: CA_16  and  C_18
REMARK    6  A    between atoms: C_19  and  C_23
REMARK    7  A    between atoms: C_23  and  C_24
REMARK    8  A    between atoms: C_24  and  C_25
REMARK                            x       y       z     vdW  Elec       q    Type
REMARK                         _______ _______ _______ _____ _____    ______ ____
ROOT
ATOM      1  C   UNL     1      17.782  39.857  47.019  0.00  0.00    +0.000 C 
ATOM      2  CA  UNL     1      16.939  39.573  46.006  0.00  0.00    +0.000 C 
ENDROOT
BRANCH   1   8
ATOM      3  C   UNL     1      21.345  42.044  47.641  0.00  0.00    +0.000 A 
ATOM      4  C   UNL     1      20.149  42.755  47.467  0.00  0.00    +0.000 A 
ATOM      5  C   UNL     1      21.417  40.714  47.271  0.00  0.00    +0.000 A 
ATOM      6  C   UNL     1      18.976  42.053  47.191  0.00  0.00    +0.000 A 
ATOM      7  C   UNL     1      20.245  40.011  47.009  0.00  0.00    +0.000 A 
ATOM      8  C   UNL     1      19.006  40.660  47.038  0.00  0.00    +0.000 A 
BRANCH   3   9
ATOM      9  O   UNL     1      22.486  42.586  48.180  0.00  0.00    +0.000 OA
BRANCH   9  12
ATOM     10  I   UNL     1      25.194  42.927  50.631  0.00  0.00    +0.000 I 
ATOM     11  C   UNL     1      24.940  42.194  48.659  0.00  0.00    +0.000 A 
ATOM     12  C   UNL     1      23.745  42.086  47.926  0.00  0.00    +0.000 A 
ATOM     13  C   UNL     1      26.123  41.616  48.163  0.00  0.00    +0.000 A 
ATOM     14  C   UNL     1      23.741  41.255  46.783  0.00  0.00    +0.000 A 
ATOM     15  C   UNL     1      26.097  40.804  47.026  0.00  0.00    +0.000 A 
ATOM     16  C   UNL     1      24.902  40.601  46.363  0.00  0.00    +0.000 A 
ENDBRANCH   9  12
ENDBRANCH   3   9
ENDBRANCH   1   8
BRANCH   2  17
ATOM     17  N   UNL     1      17.064  39.982  44.684  0.00  0.00    +0.000 N 
ATOM     18  C   UNL     1      16.806  41.265  44.213  0.00  0.00    +0.000 C 
ATOM     19  O   UNL     1      16.529  42.230  44.917  0.00  0.00    +0.000 OA
ATOM     20  H   UNL     1      17.359  39.310  44.028  0.00  0.00    +0.000 HD
BRANCH  18  21
ATOM     21  C   UNL     1      16.976  41.449  42.721  0.00  0.00    +0.000 C 
BRANCH  21  22
ATOM     22  C   UNL     1      18.419  41.907  42.435  0.00  0.00    +0.000 C 
BRANCH  22  23
ATOM     23  C   UNL     1      19.454  41.253  43.337  0.00  0.00    +0.000 C 
ATOM     24  C   UNL     1      20.810  41.965  43.321  0.00  0.00    +0.000 C 
ATOM     25  C   UNL     1      19.845  39.844  42.902  0.00  0.00    +0.000 C 
ATOM     26  C   UNL     1      21.785  40.931  43.885  0.00  0.00    +0.000 C 
ATOM     27  C   UNL     1      21.102  39.572  43.717  0.00  0.00    +0.000 C 
ENDBRANCH  22  23
ENDBRANCH  21  22
ENDBRANCH  18  21
ENDBRANCH   2  17
BRANCH   2  28
ATOM     28  C   UNL     1      15.737  38.757  46.430  0.00  0.00    +0.000 C 
ATOM     29  O   UNL     1      14.934  39.072  47.296  0.00  0.00    +0.000 OA
ATOM     30  OXT UNL     1      15.660  37.558  45.794  0.00  0.00    +0.000 OA
ENDBRANCH   2  28
TORSDOF 8
ENDMDL
MODEL 9
REMARK VINA RESULT:      -5.5      3.155      7.342
REMARK  Name = 323637
REMARK  8 active torsions:
REMARK  status: ('A' for Active; 'I' for Inactive)
REMARK    1  A    between atoms: C_3  and  O_5
REMARK    2  A    between atoms: O_5  and  C_8
REMARK    3  A    between atoms: C_14  and  C_15
REMARK    4  A    between atoms: CA_16  and  N_17
REMARK    5  A    between atoms: CA_16  and  C_18
REMARK    6  A    between atoms: C_19  and  C_23
REMARK    7  A    between atoms: C_23  and  C_24
REMARK    8  A    between atoms: C_24  and  C_25
REMARK                            x       y       z     vdW  Elec       q    Type
REMARK                         _______ _______ _______ _____ _____    ______ ____
ROOT
ATOM      1  C   UNL     1      18.516  43.372  46.178  0.00  0.00    +0.000 C 
ATOM      2  CA  UNL     1      17.408  43.088  45.465  0.00  0.00    +0.000 C 
ENDROOT
BRANCH   1   8
ATOM      3  C   UNL     1      21.929  41.230  47.455  0.00  0.00    +0.000 A 
ATOM      4  C   UNL     1      22.118  42.394  46.697  0.00  0.00    +0.000 A 
ATOM      5  C   UNL     1      20.690  40.616  47.478  0.00  0.00    +0.000 A 
ATOM      6  C   UNL     1      21.005  43.075  46.208  0.00  0.00    +0.000 A 
ATOM      7  C   UNL     1      19.577  41.302  47.003  0.00  0.00    +0.000 A 
ATOM      8  C   UNL     1      19.716  42.569  46.428  0.00  0.00    +0.000 A 
BRANCH   3   9
ATOM      9  O   UNL     1      22.913  40.639  48.209  0.00  0.00    +0.000 OA
BRANCH   9  12
ATOM     10  I   UNL     1      25.837  40.620  45.993  0.00  0.00    +0.000 I 
ATOM     11  C   UNL     1      25.334  41.321  47.930  0.00  0.00    +0.000 A 
ATOM     12  C   UNL     1      24.078  41.286  48.560  0.00  0.00    +0.000 A 
ATOM     13  C   UNL     1      26.395  42.037  48.514  0.00  0.00    +0.000 A 
ATOM     14  C   UNL     1      23.880  42.113  49.688  0.00  0.00    +0.000 A 
ATOM     15  C   UNL     1      26.178  42.842  49.636  0.00  0.00    +0.000 A 
ATOM     16  C   UNL     1      24.916  42.901  50.196  0.00  0.00    +0.000 A 
ENDBRANCH   9  12
ENDBRANCH   3   9
ENDBRANCH   1   8
BRANCH   2  17
ATOM     17  N   UNL     1      17.134  41.902  44.795  0.00  0.00    +0.000 N 
ATOM     18  C   UNL     1      17.509  41.615  43.487  0.00  0.00    +0.000 C 
ATOM     19  O   UNL     1      18.215  42.330  42.784  0.00  0.00    +0.000 OA
ATOM     20  H   UNL     1      16.637  41.209  45.286  0.00  0.00    +0.000 HD
BRANCH  18  21
ATOM     21  C   UNL     1      17.056  40.268  42.969  0.00  0.00    +0.000 C 
BRANCH  21  22
ATOM     22  C   UNL     1      18.104  39.206  43.352  0.00  0.00    +0.000 C 
BRANCH  22  23
ATOM     23  C   UNL     1      17.804  38.503  44.667  0.00  0.00    +0.000 C 
ATOM     24  C   UNL     1      17.659  36.984  44.524  0.00  0.00    +0.000 C 
ATOM     25  C   UNL     1      16.456  38.882  45.272  0.00  0.00    +0.000 C 
ATOM     26  C   UNL     1      16.928  36.556  45.797  0.00  0.00    +0.000 C 
ATOM     27  C   UNL     1      16.249  37.815  46.339  0.00  0.00    +0.000 C 
ENDBRANCH  22  23
ENDBRANCH  21  22
ENDBRANCH  18  21
ENDBRANCH   2  17
BRANCH   2  28
ATOM     28  C   UNL     1      16.423  44.234  45.397  0.00  0.00    +0.000 C 
ATOM     29  O   UNL     1      15.996  44.745  44.372  0.00  0.00    +0.000 OA
ATOM     30  OXT UNL     1      16.091  44.721  46.622  0.00  0.00    +0.000 OA
ENDBRANCH   2  28
TORSDOF 8
ENDMDL
