MODEL 1
REMARK VINA RESULT:      -8.5      0.000      0.000
REMARK  Name = 319810
REMARK  6 active torsions:
REMARK  status: ('A' for Active; 'I' for Inactive)
REMARK    1  A    between atoms: C_3  and  O_5
REMARK    2  A    between atoms: O_5  and  C_8
REMARK    3  A    between atoms: C_14  and  C_15
REMARK    4  A    between atoms: CA_16  and  N_17
REMARK    5  A    between atoms: CA_16  and  C_18
REMARK    6  A    between atoms: C_19  and  C_23
REMARK                            x       y       z     vdW  Elec       q    Type
REMARK                         _______ _______ _______ _____ _____    ______ ____
ROOT
ATOM      1  C   UNL     1      20.258  42.416  43.506  0.00  0.00    +0.000 C 
ATOM      2  CA  UNL     1      18.991  41.997  43.338  0.00  0.00    +0.000 C 
ENDROOT
BRANCH   1   8
ATOM      3  C   UNL     1      22.499  41.260  46.917  0.00  0.00    +0.000 A 
ATOM      4  C   UNL     1      21.918  42.527  46.883  0.00  0.00    +0.000 A 
ATOM      5  C   UNL     1      22.558  40.488  45.754  0.00  0.00    +0.000 A 
ATOM      6  C   UNL     1      21.260  42.956  45.725  0.00  0.00    +0.000 A 
ATOM      7  C   UNL     1      21.884  40.909  44.606  0.00  0.00    +0.000 A 
ATOM      8  C   UNL     1      21.190  42.126  44.602  0.00  0.00    +0.000 A 
BRANCH   3   9
ATOM      9  O   UNL     1      22.966  40.802  48.133  0.00  0.00    +0.000 OA
BRANCH   9  12
ATOM     10 BR   UNL     1      25.742  40.656  46.781  0.00  0.00    +0.000 Br
ATOM     11  C   UNL     1      25.217  41.599  48.341  0.00  0.00    +0.000 A 
ATOM     12  C   UNL     1      23.895  41.585  48.800  0.00  0.00    +0.000 A 
ATOM     13  C   UNL     1      26.197  42.320  49.035  0.00  0.00    +0.000 A 
ATOM     14  C   UNL     1      23.554  42.381  49.907  0.00  0.00    +0.000 A 
ATOM     15  C   UNL     1      25.859  43.043  50.180  0.00  0.00    +0.000 A 
ATOM     16  C   UNL     1      24.535  43.084  50.607  0.00  0.00    +0.000 A 
ENDBRANCH   9  12
ENDBRANCH   3   9
ENDBRANCH   1   8
BRANCH   2  17
ATOM     17  N   UNL     1      18.340  41.046  44.111  0.00  0.00    +0.000 N 
ATOM     18  C   UNL     1      18.603  39.697  43.948  0.00  0.00    +0.000 C 
ATOM     19  O   UNL     1      19.306  39.249  43.050  0.00  0.00    +0.000 OA
ATOM     20  H   UNL     1      17.683  41.334  44.785  0.00  0.00    +0.000 HD
BRANCH  18  21
ATOM     21  C   UNL     1      17.880  38.742  44.825  0.00  0.00    +0.000 A 
ATOM     22  C   UNL     1      17.139  39.281  45.885  0.00  0.00    +0.000 A 
ATOM     23  C   UNL     1      17.846  37.369  44.573  0.00  0.00    +0.000 A 
ATOM     24  C   UNL     1      16.355  38.447  46.667  0.00  0.00    +0.000 A 
ATOM     25  C   UNL     1      17.045  36.537  45.370  0.00  0.00    +0.000 A 
ATOM     26  F   UNL     1      15.634  38.968  47.668  0.00  0.00    +0.000 F 
ATOM     27  C   UNL     1      16.294  37.082  46.414  0.00  0.00    +0.000 A 
ENDBRANCH  18  21
ENDBRANCH   2  17
BRANCH   2  28
ATOM     28  C   UNL     1      18.240  42.626  42.204  0.00  0.00    +0.000 C 
ATOM     29  O   UNL     1      18.468  43.726  41.729  0.00  0.00    +0.000 OA
ATOM     30  OXT UNL     1      17.246  41.817  41.767  0.00  0.00    +0.000 OA
ENDBRANCH   2  28
TORSDOF 6
ENDMDL
MODEL 2
REMARK VINA RESULT:      -7.2      1.918      2.275
REMARK  Name = 319810
REMARK  6 active torsions:
REMARK  status: ('A' for Active; 'I' for Inactive)
REMARK    1  A    between atoms: C_3  and  O_5
REMARK    2  A    between atoms: O_5  and  C_8
REMARK    3  A    between atoms: C_14  and  C_15
REMARK    4  A    between atoms: CA_16  and  N_17
REMARK    5  A    between atoms: CA_16  and  C_18
REMARK    6  A    between atoms: C_19  and  C_23
REMARK                            x       y       z     vdW  Elec       q    Type
REMARK                         _______ _______ _______ _____ _____    ______ ____
ROOT
ATOM      1  C   UNL     1      18.749  43.530  45.321  0.00  0.00    +0.000 C 
ATOM      2  CA  UNL     1      17.784  42.769  44.772  0.00  0.00    +0.000 C 
ENDROOT
BRANCH   1   8
ATOM      3  C   UNL     1      21.948  41.820  47.519  0.00  0.00    +0.000 A 
ATOM      4  C   UNL     1      20.689  41.908  48.109  0.00  0.00    +0.000 A 
ATOM      5  C   UNL     1      22.212  42.510  46.332  0.00  0.00    +0.000 A 
ATOM      6  C   UNL     1      19.650  42.557  47.433  0.00  0.00    +0.000 A 
ATOM      7  C   UNL     1      21.170  43.140  45.649  0.00  0.00    +0.000 A 
ATOM      8  C   UNL     1      19.872  43.125  46.174  0.00  0.00    +0.000 A 
BRANCH   3   9
ATOM      9  O   UNL     1      22.887  41.010  48.127  0.00  0.00    +0.000 OA
BRANCH   9  12
ATOM     10 BR   UNL     1      25.424  40.515  46.434  0.00  0.00    +0.000 Br
ATOM     11  C   UNL     1      25.240  41.462  48.067  0.00  0.00    +0.000 A 
ATOM     12  C   UNL     1      23.996  41.622  48.689  0.00  0.00    +0.000 A 
ATOM     13  C   UNL     1      26.394  42.003  48.648  0.00  0.00    +0.000 A 
ATOM     14  C   UNL     1      23.915  42.415  49.846  0.00  0.00    +0.000 A 
ATOM     15  C   UNL     1      26.309  42.722  49.841  0.00  0.00    +0.000 A 
ATOM     16  C   UNL     1      25.068  42.939  50.432  0.00  0.00    +0.000 A 
ENDBRANCH   9  12
ENDBRANCH   3   9
ENDBRANCH   1   8
BRANCH   2  17
ATOM     17  N   UNL     1      17.746  41.382  44.770  0.00  0.00    +0.000 N 
ATOM     18  C   UNL     1      16.936  40.692  45.654  0.00  0.00    +0.000 C 
ATOM     19  O   UNL     1      16.315  41.231  46.563  0.00  0.00    +0.000 OA
ATOM     20  H   UNL     1      18.300  40.881  44.129  0.00  0.00    +0.000 HD
BRANCH  18  21
ATOM     21  C   UNL     1      16.935  39.210  45.578  0.00  0.00    +0.000 A 
ATOM     22  C   UNL     1      17.732  38.620  44.588  0.00  0.00    +0.000 A 
ATOM     23  C   UNL     1      16.254  38.410  46.498  0.00  0.00    +0.000 A 
ATOM     24  C   UNL     1      17.858  37.239  44.542  0.00  0.00    +0.000 A 
ATOM     25  C   UNL     1      16.394  37.015  46.443  0.00  0.00    +0.000 A 
ATOM     26  F   UNL     1      18.635  36.679  43.606  0.00  0.00    +0.000 F 
ATOM     27  C   UNL     1      17.204  36.433  45.466  0.00  0.00    +0.000 A 
ENDBRANCH  18  21
ENDBRANCH   2  17
BRANCH   2  28
ATOM     28  C   UNL     1      16.666  43.512  44.105  0.00  0.00    +0.000 C 
ATOM     29  O   UNL     1      16.206  44.578  44.477  0.00  0.00    +0.000 OA
ATOM     30  OXT UNL     1      16.208  42.839  43.024  0.00  0.00    +0.000 OA
ENDBRANCH   2  28
TORSDOF 6
ENDMDL
MODEL 3
REMARK VINA RESULT:      -7.0      3.548      7.749
REMARK  Name = 319810
REMARK  6 active torsions:
REMARK  status: ('A' for Active; 'I' for Inactive)
REMARK    1  A    between atoms: C_3  and  O_5
REMARK    2  A    between atoms: O_5  and  C_8
REMARK    3  A    between atoms: C_14  and  C_15
REMARK    4  A    between atoms: CA_16  and  N_17
REMARK    5  A    between atoms: CA_16  and  C_18
REMARK    6  A    between atoms: C_19  and  C_23
REMARK                            x       y       z     vdW  Elec       q    Type
REMARK                         _______ _______ _______ _____ _____    ______ ____
ROOT
ATOM      1  C   UNL     1      23.219  38.866  44.644  0.00  0.00    +0.000 C 
ATOM      2  CA  UNL     1      23.869  38.701  45.810  0.00  0.00    +0.000 C 
ENDROOT
BRANCH   1   8
ATOM      3  C   UNL     1      20.231  41.792  43.939  0.00  0.00    +0.000 A 
ATOM      4  C   UNL     1      20.227  40.622  43.182  0.00  0.00    +0.000 A 
ATOM      5  C   UNL     1      21.339  42.108  44.730  0.00  0.00    +0.000 A 
ATOM      6  C   UNL     1      21.263  39.693  43.337  0.00  0.00    +0.000 A 
ATOM      7  C   UNL     1      22.362  41.173  44.898  0.00  0.00    +0.000 A 
ATOM      8  C   UNL     1      22.304  39.939  44.238  0.00  0.00    +0.000 A 
BRANCH   3   9
ATOM      9  O   UNL     1      19.101  42.585  43.899  0.00  0.00    +0.000 OA
BRANCH   9  12
ATOM     10 BR   UNL     1      16.817  40.504  43.948  0.00  0.00    +0.000 Br
ATOM     11  C   UNL     1      17.244  41.843  45.221  0.00  0.00    +0.000 A 
ATOM     12  C   UNL     1      18.348  42.689  45.058  0.00  0.00    +0.000 A 
ATOM     13  C   UNL     1      16.417  41.971  46.345  0.00  0.00    +0.000 A 
ATOM     14  C   UNL     1      18.663  43.595  46.083  0.00  0.00    +0.000 A 
ATOM     15  C   UNL     1      16.698  42.931  47.318  0.00  0.00    +0.000 A 
ATOM     16  C   UNL     1      17.828  43.733  47.193  0.00  0.00    +0.000 A 
ENDBRANCH   9  12
ENDBRANCH   3   9
ENDBRANCH   1   8
BRANCH   2  17
ATOM     17  N   UNL     1      23.932  39.626  46.843  0.00  0.00    +0.000 N 
ATOM     18  C   UNL     1      24.967  40.541  46.915  0.00  0.00    +0.000 C 
ATOM     19  O   UNL     1      25.943  40.518  46.174  0.00  0.00    +0.000 OA
ATOM     20  H   UNL     1      23.230  39.633  47.533  0.00  0.00    +0.000 HD
BRANCH  18  21
ATOM     21  C   UNL     1      24.955  41.511  48.039  0.00  0.00    +0.000 A 
ATOM     22  C   UNL     1      23.714  41.798  48.623  0.00  0.00    +0.000 A 
ATOM     23  C   UNL     1      26.124  42.057  48.573  0.00  0.00    +0.000 A 
ATOM     24  C   UNL     1      23.656  42.609  49.747  0.00  0.00    +0.000 A 
ATOM     25  C   UNL     1      26.051  42.871  49.713  0.00  0.00    +0.000 A 
ATOM     26  F   UNL     1      22.471  42.866  50.313  0.00  0.00    +0.000 F 
ATOM     27  C   UNL     1      24.814  43.140  50.302  0.00  0.00    +0.000 A 
ENDBRANCH  18  21
ENDBRANCH   2  17
BRANCH   2  28
ATOM     28  C   UNL     1      24.584  37.395  45.982  0.00  0.00    +0.000 C 
ATOM     29  O   UNL     1      25.605  37.068  45.402  0.00  0.00    +0.000 OA
ATOM     30  OXT UNL     1      23.941  36.598  46.866  0.00  0.00    +0.000 OA
ENDBRANCH   2  28
TORSDOF 6
ENDMDL
MODEL 4
REMARK VINA RESULT:      -6.3      1.572      2.210
REMARK  Name = 319810
REMARK  6 active torsions:
REMARK  status: ('A' for Active; 'I' for Inactive)
REMARK    1  A    between atoms: C_3  and  O_5
REMARK    2  A    between atoms: O_5  and  C_8
REMARK    3  A    between atoms: C_14  and  C_15
REMARK    4  A    between atoms: CA_16  and  N_17
REMARK    5  A    between atoms: CA_16  and  C_18
REMARK    6  A    between atoms: C_19  and  C_23
REMARK                            x       y       z     vdW  Elec       q    Type
REMARK                         _______ _______ _______ _____ _____    ______ ____
ROOT
ATOM      1  C   UNL     1      20.146  42.412  43.294  0.00  0.00    +0.000 C 
ATOM      2  CA  UNL     1      18.925  41.873  43.125  0.00  0.00    +0.000 C 
ENDROOT
BRANCH   1   8
ATOM      3  C   UNL     1      22.547  41.366  46.630  0.00  0.00    +0.000 A 
ATOM      4  C   UNL     1      21.894  42.597  46.622  0.00  0.00    +0.000 A 
ATOM      5  C   UNL     1      22.617  40.606  45.459  0.00  0.00    +0.000 A 
ATOM      6  C   UNL     1      21.178  42.995  45.487  0.00  0.00    +0.000 A 
ATOM      7  C   UNL     1      21.887  40.995  44.334  0.00  0.00    +0.000 A 
ATOM      8  C   UNL     1      21.124  42.169  44.360  0.00  0.00    +0.000 A 
BRANCH   3   9
ATOM      9  O   UNL     1      23.075  40.928  47.828  0.00  0.00    +0.000 OA
BRANCH   9  12
ATOM     10 BR   UNL     1      23.358  42.838  50.241  0.00  0.00    +0.000 Br
ATOM     11  C   UNL     1      24.708  42.107  49.128  0.00  0.00    +0.000 A 
ATOM     12  C   UNL     1      24.405  41.219  48.089  0.00  0.00    +0.000 A 
ATOM     13  C   UNL     1      26.036  42.481  49.371  0.00  0.00    +0.000 A 
ATOM     14  C   UNL     1      25.459  40.640  47.363  0.00  0.00    +0.000 A 
ATOM     15  C   UNL     1      27.067  41.959  48.590  0.00  0.00    +0.000 A 
ATOM     16  C   UNL     1      26.780  41.028  47.596  0.00  0.00    +0.000 A 
ENDBRANCH   9  12
ENDBRANCH   3   9
ENDBRANCH   1   8
BRANCH   2  17
ATOM     17  N   UNL     1      18.390  40.825  43.861  0.00  0.00    +0.000 N 
ATOM     18  C   UNL     1      17.427  41.056  44.827  0.00  0.00    +0.000 C 
ATOM     19  O   UNL     1      17.083  42.176  45.187  0.00  0.00    +0.000 OA
ATOM     20  H   UNL     1      18.698  39.906  43.693  0.00  0.00    +0.000 HD
BRANCH  18  21
ATOM     21  C   UNL     1      16.890  39.881  45.560  0.00  0.00    +0.000 A 
ATOM     22  C   UNL     1      16.954  38.640  44.914  0.00  0.00    +0.000 A 
ATOM     23  C   UNL     1      16.421  39.965  46.873  0.00  0.00    +0.000 A 
ATOM     24  C   UNL     1      16.571  37.492  45.594  0.00  0.00    +0.000 A 
ATOM     25  C   UNL     1      16.041  38.796  47.550  0.00  0.00    +0.000 A 
ATOM     26  F   UNL     1      16.651  36.305  44.979  0.00  0.00    +0.000 F 
ATOM     27  C   UNL     1      16.124  37.558  46.908  0.00  0.00    +0.000 A 
ENDBRANCH  18  21
ENDBRANCH   2  17
BRANCH   2  28
ATOM     28  C   UNL     1      18.091  42.473  42.034  0.00  0.00    +0.000 C 
ATOM     29  O   UNL     1      17.163  41.920  41.468  0.00  0.00    +0.000 OA
ATOM     30  OXT UNL     1      18.506  43.726  41.733  0.00  0.00    +0.000 OA
ENDBRANCH   2  28
TORSDOF 6
ENDMDL
MODEL 5
REMARK VINA RESULT:      -6.1      2.454      3.862
REMARK  Name = 319810
REMARK  6 active torsions:
REMARK  status: ('A' for Active; 'I' for Inactive)
REMARK    1  A    between atoms: C_3  and  O_5
REMARK    2  A    between atoms: O_5  and  C_8
REMARK    3  A    between atoms: C_14  and  C_15
REMARK    4  A    between atoms: CA_16  and  N_17
REMARK    5  A    between atoms: CA_16  and  C_18
REMARK    6  A    between atoms: C_19  and  C_23
REMARK                            x       y       z     vdW  Elec       q    Type
REMARK                         _______ _______ _______ _____ _____    ______ ____
ROOT
ATOM      1  C   UNL     1      20.888  38.824  44.122  0.00  0.00    +0.000 C 
ATOM      2  CA  UNL     1      19.676  39.282  44.483  0.00  0.00    +0.000 C 
ENDROOT
BRANCH   1   8
ATOM      3  C   UNL     1      24.447  40.199  45.976  0.00  0.00    +0.000 A 
ATOM      4  C   UNL     1      23.756  41.051  45.115  0.00  0.00    +0.000 A 
ATOM      5  C   UNL     1      24.117  38.842  46.027  0.00  0.00    +0.000 A 
ATOM      6  C   UNL     1      22.636  40.577  44.423  0.00  0.00    +0.000 A 
ATOM      7  C   UNL     1      22.988  38.375  45.351  0.00  0.00    +0.000 A 
ATOM      8  C   UNL     1      22.214  39.254  44.583  0.00  0.00    +0.000 A 
BRANCH   3   9
ATOM      9  O   UNL     1      25.421  40.754  46.782  0.00  0.00    +0.000 OA
BRANCH   9  12
ATOM     10 BR   UNL     1      27.800  41.509  48.604  0.00  0.00    +0.000 Br
ATOM     11  C   UNL     1      25.955  41.886  48.827  0.00  0.00    +0.000 A 
ATOM     12  C   UNL     1      25.004  41.496  47.876  0.00  0.00    +0.000 A 
ATOM     13  C   UNL     1      25.558  42.572  49.981  0.00  0.00    +0.000 A 
ATOM     14  C   UNL     1      23.668  41.889  48.055  0.00  0.00    +0.000 A 
ATOM     15  C   UNL     1      24.214  42.887  50.184  0.00  0.00    +0.000 A 
ATOM     16  C   UNL     1      23.271  42.558  49.214  0.00  0.00    +0.000 A 
ENDBRANCH   9  12
ENDBRANCH   3   9
ENDBRANCH   1   8
BRANCH   2  17
ATOM     17  N   UNL     1      19.418  40.172  45.517  0.00  0.00    +0.000 N 
ATOM     18  C   UNL     1      19.241  41.521  45.265  0.00  0.00    +0.000 C 
ATOM     19  O   UNL     1      19.424  42.034  44.168  0.00  0.00    +0.000 OA
ATOM     20  H   UNL     1      19.358  39.839  46.441  0.00  0.00    +0.000 HD
BRANCH  18  21
ATOM     21  C   UNL     1      18.950  42.406  46.421  0.00  0.00    +0.000 A 
ATOM     22  C   UNL     1      17.784  43.180  46.356  0.00  0.00    +0.000 A 
ATOM     23  C   UNL     1      19.736  42.417  47.575  0.00  0.00    +0.000 A 
ATOM     24  C   UNL     1      17.404  43.939  47.454  0.00  0.00    +0.000 A 
ATOM     25  C   UNL     1      19.337  43.187  48.678  0.00  0.00    +0.000 A 
ATOM     26  F   UNL     1      16.279  44.664  47.395  0.00  0.00    +0.000 F 
ATOM     27  C   UNL     1      18.164  43.942  48.616  0.00  0.00    +0.000 A 
ENDBRANCH  18  21
ENDBRANCH   2  17
BRANCH   2  28
ATOM     28  C   UNL     1      18.518  38.765  43.686  0.00  0.00    +0.000 C 
ATOM     29  O   UNL     1      17.780  39.442  42.990  0.00  0.00    +0.000 OA
ATOM     30  OXT UNL     1      18.374  37.427  43.842  0.00  0.00    +0.000 OA
ENDBRANCH   2  28
TORSDOF 6
ENDMDL
MODEL 6
REMARK VINA RESULT:      -5.9      3.645      8.159
REMARK  Name = 319810
REMARK  6 active torsions:
REMARK  status: ('A' for Active; 'I' for Inactive)
REMARK    1  A    between atoms: C_3  and  O_5
REMARK    2  A    between atoms: O_5  and  C_8
REMARK    3  A    between atoms: C_14  and  C_15
REMARK    4  A    between atoms: CA_16  and  N_17
REMARK    5  A    between atoms: CA_16  and  C_18
REMARK    6  A    between atoms: C_19  and  C_23
REMARK                            x       y       z     vdW  Elec       q    Type
REMARK                         _______ _______ _______ _____ _____    ______ ____
ROOT
ATOM      1  C   UNL     1      23.122  38.921  44.581  0.00  0.00    +0.000 C 
ATOM      2  CA  UNL     1      23.865  38.823  45.698  0.00  0.00    +0.000 C 
ENDROOT
BRANCH   1   8
ATOM      3  C   UNL     1      19.406  40.941  44.265  0.00  0.00    +0.000 A 
ATOM      4  C   UNL     1      19.745  39.989  43.305  0.00  0.00    +0.000 A 
ATOM      5  C   UNL     1      20.372  41.403  45.162  0.00  0.00    +0.000 A 
ATOM      6  C   UNL     1      21.008  39.387  43.343  0.00  0.00    +0.000 A 
ATOM      7  C   UNL     1      21.625  40.787  45.211  0.00  0.00    +0.000 A 
ATOM      8  C   UNL     1      21.931  39.742  44.331  0.00  0.00    +0.000 A 
BRANCH   3   9
ATOM      9  O   UNL     1      18.092  41.366  44.310  0.00  0.00    +0.000 OA
BRANCH   9  12
ATOM     10 BR   UNL     1      17.212  43.116  46.701  0.00  0.00    +0.000 Br
ATOM     11  C   UNL     1      16.759  41.318  46.301  0.00  0.00    +0.000 A 
ATOM     12  C   UNL     1      17.223  40.681  45.144  0.00  0.00    +0.000 A 
ATOM     13  C   UNL     1      15.939  40.629  47.204  0.00  0.00    +0.000 A 
ATOM     14  C   UNL     1      16.774  39.381  44.859  0.00  0.00    +0.000 A 
ATOM     15  C   UNL     1      15.565  39.310  46.948  0.00  0.00    +0.000 A 
ATOM     16  C   UNL     1      15.971  38.691  45.769  0.00  0.00    +0.000 A 
ENDBRANCH   9  12
ENDBRANCH   3   9
ENDBRANCH   1   8
BRANCH   2  17
ATOM     17  N   UNL     1      23.747  39.624  46.826  0.00  0.00    +0.000 N 
ATOM     18  C   UNL     1      24.619  40.675  47.044  0.00  0.00    +0.000 C 
ATOM     19  O   UNL     1      25.608  40.888  46.353  0.00  0.00    +0.000 OA
ATOM     20  H   UNL     1      23.032  39.443  47.478  0.00  0.00    +0.000 HD
BRANCH  18  21
ATOM     21  C   UNL     1      24.417  41.498  48.263  0.00  0.00    +0.000 A 
ATOM     22  C   UNL     1      25.563  41.898  48.962  0.00  0.00    +0.000 A 
ATOM     23  C   UNL     1      23.157  41.946  48.667  0.00  0.00    +0.000 A 
ATOM     24  C   UNL     1      25.441  42.761  50.043  0.00  0.00    +0.000 A 
ATOM     25  C   UNL     1      23.049  42.821  49.759  0.00  0.00    +0.000 A 
ATOM     26  F   UNL     1      26.540  43.156  50.697  0.00  0.00    +0.000 F 
ATOM     27  C   UNL     1      24.196  43.232  50.441  0.00  0.00    +0.000 A 
ENDBRANCH  18  21
ENDBRANCH   2  17
BRANCH   2  28
ATOM     28  C   UNL     1      24.909  37.748  45.696  0.00  0.00    +0.000 C 
ATOM     29  O   UNL     1      26.021  37.844  45.207  0.00  0.00    +0.000 OA
ATOM     30  OXT UNL     1      24.457  36.626  46.304  0.00  0.00    +0.000 OA
ENDBRANCH   2  28
TORSDOF 6
ENDMDL
