MODEL 1
REMARK VINA RESULT:      -7.4      0.000      0.000
REMARK  Name = 322098
REMARK  7 active torsions:
REMARK  status: ('A' for Active; 'I' for Inactive)
REMARK    1  A    between atoms: C_7  and  C_8
REMARK    2  A    between atoms: C_8  and  C_9
REMARK    3  A    between atoms: N_11  and  CA_12
REMARK    4  A    between atoms: CA_12  and  C_13
REMARK    5  A    between atoms: C_14  and  C_17
REMARK    6  A    between atoms: C_22  and  O_23
REMARK    7  A    between atoms: O_23  and  C_24
REMARK                            x       y       z     vdW  Elec       q    Type
REMARK                         _______ _______ _______ _____ _____    ______ ____
ROOT
ATOM      1  CA  UNL     1      18.769  42.358  43.534  0.00  0.00    +0.000 C 
ATOM      2  C   UNL     1      20.106  42.484  43.691  0.00  0.00    +0.000 C 
ENDROOT
BRANCH   2   3
ATOM      3  C   UNL     1      20.933  42.060  44.832  0.00  0.00    +0.000 A 
ATOM      4  C   UNL     1      21.248  42.938  45.875  0.00  0.00    +0.000 A 
ATOM      5  C   UNL     1      21.358  40.727  44.928  0.00  0.00    +0.000 A 
ATOM      6  C   UNL     1      22.046  42.526  46.936  0.00  0.00    +0.000 A 
ATOM      7  C   UNL     1      22.084  40.288  46.040  0.00  0.00    +0.000 A 
ATOM      8  C   UNL     1      22.400  41.184  47.061  0.00  0.00    +0.000 A 
BRANCH   8   9
ATOM      9  O   UNL     1      23.050  40.670  48.161  0.00  0.00    +0.000 OA
BRANCH   9  10
ATOM     10  C   UNL     1      24.013  41.440  48.787  0.00  0.00    +0.000 A 
ATOM     11  C   UNL     1      25.287  41.507  48.212  0.00  0.00    +0.000 A 
ATOM     12  C   UNL     1      23.772  42.132  49.985  0.00  0.00    +0.000 A 
ATOM     13 BR   UNL     1      25.729  40.522  46.652  0.00  0.00    +0.000 Br
ATOM     14  C   UNL     1      26.272  42.321  48.781  0.00  0.00    +0.000 A 
ATOM     15  C   UNL     1      24.737  42.981  50.522  0.00  0.00    +0.000 A 
ATOM     16  C   UNL     1      25.986  43.077  49.919  0.00  0.00    +0.000 A 
ENDBRANCH   9  10
ENDBRANCH   8   9
ENDBRANCH   2   3
BRANCH   1  19
ATOM     17  C   UNL     1      17.577  42.480  45.666  0.00  0.00    +0.000 C 
ATOM     18  O   UNL     1      17.906  43.634  45.937  0.00  0.00    +0.000 OA
ATOM     19  N   UNL     1      17.884  41.849  44.474  0.00  0.00    +0.000 N 
ATOM     20  H   UNL     1      17.449  40.987  44.282  0.00  0.00    +0.000 HD
BRANCH  17  21
ATOM     21  C   UNL     1      16.784  41.622  46.638  0.00  0.00    +0.000 C 
BRANCH  21  28
ATOM     22  I   UNL     1      16.867  35.404  45.182  0.00  0.00    +0.000 I 
ATOM     23  C   UNL     1      16.854  37.421  45.683  0.00  0.00    +0.000 A 
ATOM     24  C   UNL     1      15.749  37.967  46.330  0.00  0.00    +0.000 A 
ATOM     25  C   UNL     1      17.946  38.222  45.357  0.00  0.00    +0.000 A 
ATOM     26  C   UNL     1      15.736  39.326  46.656  0.00  0.00    +0.000 A 
ATOM     27  C   UNL     1      17.930  39.581  45.681  0.00  0.00    +0.000 A 
ATOM     28  C   UNL     1      16.829  40.145  46.342  0.00  0.00    +0.000 A 
ENDBRANCH  21  28
ENDBRANCH  17  21
ENDBRANCH   1  19
BRANCH   1  29
ATOM     29  C   UNL     1      18.160  42.651  42.201  0.00  0.00    +0.000 C 
ATOM     30  O   UNL     1      18.503  43.620  41.539  0.00  0.00    +0.000 OA
ATOM     31  OXT UNL     1      17.277  41.730  41.763  0.00  0.00    +0.000 OA
ENDBRANCH   1  29
TORSDOF 7
ENDMDL
MODEL 2
REMARK VINA RESULT:      -5.6      3.346      7.750
REMARK  Name = 322098
REMARK  7 active torsions:
REMARK  status: ('A' for Active; 'I' for Inactive)
REMARK    1  A    between atoms: C_7  and  C_8
REMARK    2  A    between atoms: C_8  and  C_9
REMARK    3  A    between atoms: N_11  and  CA_12
REMARK    4  A    between atoms: CA_12  and  C_13
REMARK    5  A    between atoms: C_14  and  C_17
REMARK    6  A    between atoms: C_22  and  O_23
REMARK    7  A    between atoms: O_23  and  C_24
REMARK                            x       y       z     vdW  Elec       q    Type
REMARK                         _______ _______ _______ _____ _____    ______ ____
ROOT
ATOM      1  CA  UNL     1      24.144  42.217  49.034  0.00  0.00    +0.000 C 
ATOM      2  C   UNL     1      22.871  42.660  49.133  0.00  0.00    +0.000 C 
ENDROOT
BRANCH   2   3
ATOM      3  C   UNL     1      21.680  42.178  48.415  0.00  0.00    +0.000 A 
ATOM      4  C   UNL     1      21.695  40.981  47.691  0.00  0.00    +0.000 A 
ATOM      5  C   UNL     1      20.473  42.886  48.513  0.00  0.00    +0.000 A 
ATOM      6  C   UNL     1      20.567  40.550  47.004  0.00  0.00    +0.000 A 
ATOM      7  C   UNL     1      19.313  42.406  47.897  0.00  0.00    +0.000 A 
ATOM      8  C   UNL     1      19.354  41.218  47.168  0.00  0.00    +0.000 A 
BRANCH   8   9
ATOM      9  O   UNL     1      18.162  40.763  46.652  0.00  0.00    +0.000 OA
BRANCH   9  10
ATOM     10  C   UNL     1      17.874  41.007  45.322  0.00  0.00    +0.000 A 
ATOM     11  C   UNL     1      17.078  40.085  44.633  0.00  0.00    +0.000 A 
ATOM     12  C   UNL     1      18.368  42.125  44.631  0.00  0.00    +0.000 A 
ATOM     13 BR   UNL     1      16.453  38.495  45.460  0.00  0.00    +0.000 Br
ATOM     14  C   UNL     1      16.715  40.324  43.304  0.00  0.00    +0.000 A 
ATOM     15  C   UNL     1      17.965  42.389  43.323  0.00  0.00    +0.000 A 
ATOM     16  C   UNL     1      17.136  41.490  42.661  0.00  0.00    +0.000 A 
ENDBRANCH   9  10
ENDBRANCH   8   9
ENDBRANCH   2   3
BRANCH   1  19
ATOM     17  C   UNL     1      25.556  41.454  47.188  0.00  0.00    +0.000 C 
ATOM     18  O   UNL     1      26.236  42.476  47.109  0.00  0.00    +0.000 OA
ATOM     19  N   UNL     1      24.599  41.237  48.163  0.00  0.00    +0.000 N 
ATOM     20  H   UNL     1      24.217  40.333  48.243  0.00  0.00    +0.000 HD
BRANCH  17  21
ATOM     21  C   UNL     1      25.710  40.308  46.201  0.00  0.00    +0.000 C 
BRANCH  21  28
ATOM     22  I   UNL     1      20.265  38.949  43.152  0.00  0.00    +0.000 I 
ATOM     23  C   UNL     1      22.053  39.383  44.119  0.00  0.00    +0.000 A 
ATOM     24  C   UNL     1      22.680  38.406  44.887  0.00  0.00    +0.000 A 
ATOM     25  C   UNL     1      22.610  40.655  44.005  0.00  0.00    +0.000 A 
ATOM     26  C   UNL     1      23.876  38.703  45.547  0.00  0.00    +0.000 A 
ATOM     27  C   UNL     1      23.804  40.950  44.667  0.00  0.00    +0.000 A 
ATOM     28  C   UNL     1      24.454  39.975  45.437  0.00  0.00    +0.000 A 
ENDBRANCH  21  28
ENDBRANCH  17  21
ENDBRANCH   1  19
BRANCH   1  29
ATOM     29  C   UNL     1      25.162  42.695  50.019  0.00  0.00    +0.000 C 
ATOM     30  O   UNL     1      26.361  42.566  49.815  0.00  0.00    +0.000 OA
ATOM     31  OXT UNL     1      24.658  43.340  51.091  0.00  0.00    +0.000 OA
ENDBRANCH   1  29
TORSDOF 7
ENDMDL
MODEL 3
REMARK VINA RESULT:      -5.1      3.166      7.750
REMARK  Name = 322098
REMARK  7 active torsions:
REMARK  status: ('A' for Active; 'I' for Inactive)
REMARK    1  A    between atoms: C_7  and  C_8
REMARK    2  A    between atoms: C_8  and  C_9
REMARK    3  A    between atoms: N_11  and  CA_12
REMARK    4  A    between atoms: CA_12  and  C_13
REMARK    5  A    between atoms: C_14  and  C_17
REMARK    6  A    between atoms: C_22  and  O_23
REMARK    7  A    between atoms: O_23  and  C_24
REMARK                            x       y       z     vdW  Elec       q    Type
REMARK                         _______ _______ _______ _____ _____    ______ ____
ROOT
ATOM      1  CA  UNL     1      24.131  42.394  49.380  0.00  0.00    +0.000 C 
ATOM      2  C   UNL     1      22.909  42.963  49.285  0.00  0.00    +0.000 C 
ENDROOT
BRANCH   2   3
ATOM      3  C   UNL     1      21.830  42.650  48.334  0.00  0.00    +0.000 A 
ATOM      4  C   UNL     1      20.491  42.601  48.736  0.00  0.00    +0.000 A 
ATOM      5  C   UNL     1      22.129  42.469  46.976  0.00  0.00    +0.000 A 
ATOM      6  C   UNL     1      19.487  42.285  47.829  0.00  0.00    +0.000 A 
ATOM      7  C   UNL     1      21.109  42.242  46.046  0.00  0.00    +0.000 A 
ATOM      8  C   UNL     1      19.783  42.183  46.470  0.00  0.00    +0.000 A 
BRANCH   8   9
ATOM      9  O   UNL     1      18.823  42.032  45.494  0.00  0.00    +0.000 OA
BRANCH   9  10
ATOM     10  C   UNL     1      17.976  40.941  45.554  0.00  0.00    +0.000 A 
ATOM     11  C   UNL     1      17.324  40.541  44.382  0.00  0.00    +0.000 A 
ATOM     12  C   UNL     1      17.725  40.239  46.743  0.00  0.00    +0.000 A 
ATOM     13 BR   UNL     1      17.525  41.494  42.754  0.00  0.00    +0.000 Br
ATOM     14  C   UNL     1      16.504  39.407  44.386  0.00  0.00    +0.000 A 
ATOM     15  C   UNL     1      16.950  39.081  46.736  0.00  0.00    +0.000 A 
ATOM     16  C   UNL     1      16.341  38.664  45.557  0.00  0.00    +0.000 A 
ENDBRANCH   9  10
ENDBRANCH   8   9
ENDBRANCH   2   3
BRANCH   1  19
ATOM     17  C   UNL     1      25.649  41.651  47.612  0.00  0.00    +0.000 C 
ATOM     18  O   UNL     1      26.320  42.681  47.571  0.00  0.00    +0.000 OA
ATOM     19  N   UNL     1      24.644  41.420  48.533  0.00  0.00    +0.000 N 
ATOM     20  H   UNL     1      24.269  40.512  48.591  0.00  0.00    +0.000 HD
BRANCH  17  21
ATOM     21  C   UNL     1      25.869  40.510  46.632  0.00  0.00    +0.000 C 
BRANCH  21  28
ATOM     22  I   UNL     1      20.598  39.134  43.299  0.00  0.00    +0.000 I 
ATOM     23  C   UNL     1      22.329  39.560  44.367  0.00  0.00    +0.000 A 
ATOM     24  C   UNL     1      22.585  38.898  45.566  0.00  0.00    +0.000 A 
ATOM     25  C   UNL     1      23.220  40.517  43.888  0.00  0.00    +0.000 A 
ATOM     26  C   UNL     1      23.743  39.194  46.289  0.00  0.00    +0.000 A 
ATOM     27  C   UNL     1      24.376  40.814  44.614  0.00  0.00    +0.000 A 
ATOM     28  C   UNL     1      24.654  40.149  45.817  0.00  0.00    +0.000 A 
ENDBRANCH  21  28
ENDBRANCH  17  21
ENDBRANCH   1  19
BRANCH   1  29
ATOM     29  C   UNL     1      24.992  42.705  50.562  0.00  0.00    +0.000 C 
ATOM     30  O   UNL     1      26.182  42.956  50.440  0.00  0.00    +0.000 OA
ATOM     31  OXT UNL     1      24.339  42.766  51.741  0.00  0.00    +0.000 OA
ENDBRANCH   1  29
TORSDOF 7
ENDMDL
