MODEL 1
REMARK VINA RESULT:      -8.6      0.000      0.000
REMARK  Name = 319952
REMARK  8 active torsions:
REMARK  status: ('A' for Active; 'I' for Inactive)
REMARK    1  A    between atoms: C_3  and  O_5
REMARK    2  A    between atoms: O_5  and  C_8
REMARK    3  A    between atoms: C_14  and  C_15
REMARK    4  A    between atoms: CA_16  and  N_17
REMARK    5  A    between atoms: CA_16  and  C_18
REMARK    6  A    between atoms: C_19  and  C_23
REMARK    7  A    between atoms: C_24  and  C_27
REMARK    8  A    between atoms: C_27  and  C_30
REMARK                            x       y       z     vdW  Elec       q    Type
REMARK                         _______ _______ _______ _____ _____    ______ ____
ROOT
ATOM      1  C   UNL     1      20.148  42.387  43.527  0.00  0.00    +0.000 C 
ATOM      2  CA  UNL     1      18.902  41.905  43.387  0.00  0.00    +0.000 C 
ENDROOT
BRANCH   1   8
ATOM      3  C   UNL     1      22.463  41.308  46.895  0.00  0.00    +0.000 A 
ATOM      4  C   UNL     1      21.755  42.511  46.918  0.00  0.00    +0.000 A 
ATOM      5  C   UNL     1      22.634  40.620  45.689  0.00  0.00    +0.000 A 
ATOM      6  C   UNL     1      21.081  42.943  45.770  0.00  0.00    +0.000 A 
ATOM      7  C   UNL     1      21.944  41.040  44.552  0.00  0.00    +0.000 A 
ATOM      8  C   UNL     1      21.120  42.170  44.604  0.00  0.00    +0.000 A 
BRANCH   3   9
ATOM      9  O   UNL     1      22.956  40.827  48.089  0.00  0.00    +0.000 OA
BRANCH   9  12
ATOM     10 BR   UNL     1      25.745  40.638  46.771  0.00  0.00    +0.000 Br
ATOM     11  C   UNL     1      25.214  41.608  48.314  0.00  0.00    +0.000 A 
ATOM     12  C   UNL     1      23.889  41.600  48.767  0.00  0.00    +0.000 A 
ATOM     13  C   UNL     1      26.195  42.342  48.996  0.00  0.00    +0.000 A 
ATOM     14  C   UNL     1      23.549  42.402  49.869  0.00  0.00    +0.000 A 
ATOM     15  C   UNL     1      25.854  43.084  50.128  0.00  0.00    +0.000 A 
ATOM     16  C   UNL     1      24.530  43.122  50.557  0.00  0.00    +0.000 A 
ENDBRANCH   9  12
ENDBRANCH   3   9
ENDBRANCH   1   8
BRANCH   2  17
ATOM     17  N   UNL     1      18.330  40.955  44.222  0.00  0.00    +0.000 N 
ATOM     18  C   UNL     1      18.704  39.623  44.061  0.00  0.00    +0.000 C 
ATOM     19  O   UNL     1      19.543  39.276  43.237  0.00  0.00    +0.000 OA
ATOM     20  H   UNL     1      17.677  41.216  44.911  0.00  0.00    +0.000 HD
BRANCH  18  21
ATOM     21  C   UNL     1      17.958  38.605  44.857  0.00  0.00    +0.000 A 
ATOM     22  C   UNL     1      17.213  38.962  46.013  0.00  0.00    +0.000 A 
ATOM     23  C   UNL     1      17.903  37.296  44.350  0.00  0.00    +0.000 A 
ATOM     24  C   UNL     1      16.363  37.988  46.570  0.00  0.00    +0.000 A 
ATOM     25  C   UNL     1      17.062  36.351  44.933  0.00  0.00    +0.000 A 
ATOM     26  C   UNL     1      16.281  36.703  46.029  0.00  0.00    +0.000 A 
BRANCH  22  27
ATOM     27  C   UNL     1      17.246  40.371  46.582  0.00  0.00    +0.000 C 
ATOM     28  C   UNL     1      18.449  40.762  47.438  0.00  0.00    +0.000 C 
ENDBRANCH  22  27
ENDBRANCH  18  21
ENDBRANCH   2  17
BRANCH   2  29
ATOM     29  C   UNL     1      18.132  42.422  42.206  0.00  0.00    +0.000 C 
ATOM     30  O   UNL     1      17.231  41.820  41.646  0.00  0.00    +0.000 OA
ATOM     31  OXT UNL     1      18.567  43.635  41.801  0.00  0.00    +0.000 OA
ENDBRANCH   2  29
TORSDOF 7
ENDMDL
MODEL 2
REMARK VINA RESULT:      -7.6      2.264      3.881
REMARK  Name = 319952
REMARK  8 active torsions:
REMARK  status: ('A' for Active; 'I' for Inactive)
REMARK    1  A    between atoms: C_3  and  O_5
REMARK    2  A    between atoms: O_5  and  C_8
REMARK    3  A    between atoms: C_14  and  C_15
REMARK    4  A    between atoms: CA_16  and  N_17
REMARK    5  A    between atoms: CA_16  and  C_18
REMARK    6  A    between atoms: C_19  and  C_23
REMARK    7  A    between atoms: C_24  and  C_27
REMARK    8  A    between atoms: C_27  and  C_30
REMARK                            x       y       z     vdW  Elec       q    Type
REMARK                         _______ _______ _______ _____ _____    ______ ____
ROOT
ATOM      1  C   UNL     1      20.977  38.939  44.113  0.00  0.00    +0.000 C 
ATOM      2  CA  UNL     1      19.825  39.621  44.227  0.00  0.00    +0.000 C 
ENDROOT
BRANCH   1   8
ATOM      3  C   UNL     1      24.531  40.182  46.035  0.00  0.00    +0.000 A 
ATOM      4  C   UNL     1      23.947  41.021  45.085  0.00  0.00    +0.000 A 
ATOM      5  C   UNL     1      24.116  38.850  46.141  0.00  0.00    +0.000 A 
ATOM      6  C   UNL     1      22.840  40.578  44.352  0.00  0.00    +0.000 A 
ATOM      7  C   UNL     1      23.000  38.416  45.426  0.00  0.00    +0.000 A 
ATOM      8  C   UNL     1      22.324  39.295  44.573  0.00  0.00    +0.000 A 
BRANCH   3   9
ATOM      9  O   UNL     1      25.495  40.717  46.861  0.00  0.00    +0.000 OA
BRANCH   9  12
ATOM     10 BR   UNL     1      27.874  41.512  48.666  0.00  0.00    +0.000 Br
ATOM     11  C   UNL     1      26.029  41.900  48.881  0.00  0.00    +0.000 A 
ATOM     12  C   UNL     1      25.075  41.475  47.947  0.00  0.00    +0.000 A 
ATOM     13  C   UNL     1      25.640  42.631  50.012  0.00  0.00    +0.000 A 
ATOM     14  C   UNL     1      23.738  41.863  48.125  0.00  0.00    +0.000 A 
ATOM     15  C   UNL     1      24.297  42.954  50.210  0.00  0.00    +0.000 A 
ATOM     16  C   UNL     1      23.349  42.580  49.261  0.00  0.00    +0.000 A 
ENDBRANCH   9  12
ENDBRANCH   3   9
ENDBRANCH   1   8
BRANCH   2  17
ATOM     17  N   UNL     1      19.674  40.792  44.957  0.00  0.00    +0.000 N 
ATOM     18  C   UNL     1      18.945  40.741  46.143  0.00  0.00    +0.000 C 
ATOM     19  O   UNL     1      18.470  39.696  46.573  0.00  0.00    +0.000 OA
ATOM     20  H   UNL     1      20.073  41.636  44.645  0.00  0.00    +0.000 HD
BRANCH  18  21
ATOM     21  C   UNL     1      18.661  42.039  46.823  0.00  0.00    +0.000 A 
ATOM     22  C   UNL     1      17.538  42.836  46.472  0.00  0.00    +0.000 A 
ATOM     23  C   UNL     1      19.466  42.385  47.922  0.00  0.00    +0.000 A 
ATOM     24  C   UNL     1      17.220  43.921  47.308  0.00  0.00    +0.000 A 
ATOM     25  C   UNL     1      19.131  43.476  48.721  0.00  0.00    +0.000 A 
ATOM     26  C   UNL     1      18.000  44.230  48.425  0.00  0.00    +0.000 A 
BRANCH  22  27
ATOM     27  C   UNL     1      16.644  42.483  45.295  0.00  0.00    +0.000 C 
ATOM     28  C   UNL     1      16.982  43.098  43.938  0.00  0.00    +0.000 C 
ENDBRANCH  22  27
ENDBRANCH  18  21
ENDBRANCH   2  17
BRANCH   2  29
ATOM     29  C   UNL     1      18.637  39.012  43.539  0.00  0.00    +0.000 C 
ATOM     30  O   UNL     1      17.833  39.632  42.860  0.00  0.00    +0.000 OA
ATOM     31  OXT UNL     1      18.530  37.686  43.775  0.00  0.00    +0.000 OA
ENDBRANCH   2  29
TORSDOF 7
ENDMDL
MODEL 3
REMARK VINA RESULT:      -7.2      3.064      7.560
REMARK  Name = 319952
REMARK  8 active torsions:
REMARK  status: ('A' for Active; 'I' for Inactive)
REMARK    1  A    between atoms: C_3  and  O_5
REMARK    2  A    between atoms: O_5  and  C_8
REMARK    3  A    between atoms: C_14  and  C_15
REMARK    4  A    between atoms: CA_16  and  N_17
REMARK    5  A    between atoms: CA_16  and  C_18
REMARK    6  A    between atoms: C_19  and  C_23
REMARK    7  A    between atoms: C_24  and  C_27
REMARK    8  A    between atoms: C_27  and  C_30
REMARK                            x       y       z     vdW  Elec       q    Type
REMARK                         _______ _______ _______ _____ _____    ______ ____
ROOT
ATOM      1  C   UNL     1      23.060  38.869  44.524  0.00  0.00    +0.000 C 
ATOM      2  CA  UNL     1      23.684  38.815  45.712  0.00  0.00    +0.000 C 
ENDROOT
BRANCH   1   8
ATOM      3  C   UNL     1      19.923  41.581  43.702  0.00  0.00    +0.000 A 
ATOM      4  C   UNL     1      19.867  40.297  43.157  0.00  0.00    +0.000 A 
ATOM      5  C   UNL     1      21.115  42.051  44.264  0.00  0.00    +0.000 A 
ATOM      6  C   UNL     1      20.951  39.426  43.318  0.00  0.00    +0.000 A 
ATOM      7  C   UNL     1      22.185  41.176  44.442  0.00  0.00    +0.000 A 
ATOM      8  C   UNL     1      22.086  39.845  44.021  0.00  0.00    +0.000 A 
BRANCH   3   9
ATOM      9  O   UNL     1      18.772  42.339  43.684  0.00  0.00    +0.000 OA
BRANCH   9  12
ATOM     10 BR   UNL     1      16.801  40.009  44.171  0.00  0.00    +0.000 Br
ATOM     11  C   UNL     1      17.127  41.543  45.241  0.00  0.00    +0.000 A 
ATOM     12  C   UNL     1      18.081  42.502  44.878  0.00  0.00    +0.000 A 
ATOM     13  C   UNL     1      16.378  41.693  46.416  0.00  0.00    +0.000 A 
ATOM     14  C   UNL     1      18.328  43.571  45.754  0.00  0.00    +0.000 A 
ATOM     15  C   UNL     1      16.589  42.795  47.245  0.00  0.00    +0.000 A 
ATOM     16  C   UNL     1      17.571  43.727  46.920  0.00  0.00    +0.000 A 
ENDBRANCH   9  12
ENDBRANCH   3   9
ENDBRANCH   1   8
BRANCH   2  17
ATOM     17  N   UNL     1      23.610  39.805  46.683  0.00  0.00    +0.000 N 
ATOM     18  C   UNL     1      24.677  40.694  46.802  0.00  0.00    +0.000 C 
ATOM     19  O   UNL     1      25.650  40.649  46.057  0.00  0.00    +0.000 OA
ATOM     20  H   UNL     1      22.825  39.877  47.271  0.00  0.00    +0.000 HD
BRANCH  18  21
ATOM     21  C   UNL     1      24.647  41.642  47.954  0.00  0.00    +0.000 A 
ATOM     22  C   UNL     1      23.438  41.958  48.629  0.00  0.00    +0.000 A 
ATOM     23  C   UNL     1      25.879  42.112  48.439  0.00  0.00    +0.000 A 
ATOM     24  C   UNL     1      23.530  42.678  49.834  0.00  0.00    +0.000 A 
ATOM     25  C   UNL     1      25.935  42.836  49.629  0.00  0.00    +0.000 A 
ATOM     26  C   UNL     1      24.765  43.100  50.333  0.00  0.00    +0.000 A 
BRANCH  22  27
ATOM     27  C   UNL     1      22.091  41.458  48.133  0.00  0.00    +0.000 C 
ATOM     28  C   UNL     1      21.037  42.503  47.768  0.00  0.00    +0.000 C 
ENDBRANCH  22  27
ENDBRANCH  18  21
ENDBRANCH   2  17
BRANCH   2  29
ATOM     29  C   UNL     1      24.545  37.606  45.942  0.00  0.00    +0.000 C 
ATOM     30  O   UNL     1      25.607  37.392  45.380  0.00  0.00    +0.000 OA
ATOM     31  OXT UNL     1      23.998  36.748  46.830  0.00  0.00    +0.000 OA
ENDBRANCH   2  29
TORSDOF 7
ENDMDL
MODEL 4
REMARK VINA RESULT:      -6.8      2.788      7.151
REMARK  Name = 319952
REMARK  8 active torsions:
REMARK  status: ('A' for Active; 'I' for Inactive)
REMARK    1  A    between atoms: C_3  and  O_5
REMARK    2  A    between atoms: O_5  and  C_8
REMARK    3  A    between atoms: C_14  and  C_15
REMARK    4  A    between atoms: CA_16  and  N_17
REMARK    5  A    between atoms: CA_16  and  C_18
REMARK    6  A    between atoms: C_19  and  C_23
REMARK    7  A    between atoms: C_24  and  C_27
REMARK    8  A    between atoms: C_27  and  C_30
REMARK                            x       y       z     vdW  Elec       q    Type
REMARK                         _______ _______ _______ _____ _____    ______ ____
ROOT
ATOM      1  C   UNL     1      23.828  40.316  45.258  0.00  0.00    +0.000 C 
ATOM      2  CA  UNL     1      23.883  41.258  46.214  0.00  0.00    +0.000 C 
ENDROOT
BRANCH   1   8
ATOM      3  C   UNL     1      20.147  39.373  43.407  0.00  0.00    +0.000 A 
ATOM      4  C   UNL     1      20.770  38.411  44.202  0.00  0.00    +0.000 A 
ATOM      5  C   UNL     1      20.854  40.511  43.002  0.00  0.00    +0.000 A 
ATOM      6  C   UNL     1      22.044  38.659  44.724  0.00  0.00    +0.000 A 
ATOM      7  C   UNL     1      22.114  40.767  43.540  0.00  0.00    +0.000 A 
ATOM      8  C   UNL     1      22.689  39.871  44.448  0.00  0.00    +0.000 A 
BRANCH   3   9
ATOM      9  O   UNL     1      18.826  39.172  43.067  0.00  0.00    +0.000 OA
BRANCH   9  12
ATOM     10 BR   UNL     1      16.995  41.396  44.186  0.00  0.00    +0.000 Br
ATOM     11  C   UNL     1      17.086  39.563  44.673  0.00  0.00    +0.000 A 
ATOM     12  C   UNL     1      17.970  38.679  44.042  0.00  0.00    +0.000 A 
ATOM     13  C   UNL     1      16.235  39.113  45.692  0.00  0.00    +0.000 A 
ATOM     14  C   UNL     1      17.930  37.320  44.396  0.00  0.00    +0.000 A 
ATOM     15  C   UNL     1      16.252  37.773  46.077  0.00  0.00    +0.000 A 
ATOM     16  C   UNL     1      17.091  36.875  45.423  0.00  0.00    +0.000 A 
ENDBRANCH   9  12
ENDBRANCH   3   9
ENDBRANCH   1   8
BRANCH   2  17
ATOM     17  N   UNL     1      22.839  42.116  46.532  0.00  0.00    +0.000 N 
ATOM     18  C   UNL     1      21.717  41.584  47.164  0.00  0.00    +0.000 C 
ATOM     19  O   UNL     1      21.644  40.402  47.478  0.00  0.00    +0.000 OA
ATOM     20  H   UNL     1      22.890  43.075  46.316  0.00  0.00    +0.000 HD
BRANCH  18  21
ATOM     21  C   UNL     1      20.546  42.491  47.348  0.00  0.00    +0.000 A 
ATOM     22  C   UNL     1      19.976  43.204  46.259  0.00  0.00    +0.000 A 
ATOM     23  C   UNL     1      19.935  42.513  48.613  0.00  0.00    +0.000 A 
ATOM     24  C   UNL     1      18.747  43.854  46.474  0.00  0.00    +0.000 A 
ATOM     25  C   UNL     1      18.725  43.179  48.796  0.00  0.00    +0.000 A 
ATOM     26  C   UNL     1      18.124  43.831  47.724  0.00  0.00    +0.000 A 
BRANCH  22  27
ATOM     27  C   UNL     1      20.609  43.192  44.877  0.00  0.00    +0.000 C 
ATOM     28  C   UNL     1      19.686  43.365  43.672  0.00  0.00    +0.000 C 
ENDBRANCH  22  27
ENDBRANCH  18  21
ENDBRANCH   2  17
BRANCH   2  29
ATOM     29  C   UNL     1      25.198  41.385  46.929  0.00  0.00    +0.000 C 
ATOM     30  O   UNL     1      25.469  42.260  47.735  0.00  0.00    +0.000 OA
ATOM     31  OXT UNL     1      26.078  40.429  46.559  0.00  0.00    +0.000 OA
ENDBRANCH   2  29
TORSDOF 7
ENDMDL
MODEL 5
REMARK VINA RESULT:      -6.6      1.687      2.208
REMARK  Name = 319952
REMARK  8 active torsions:
REMARK  status: ('A' for Active; 'I' for Inactive)
REMARK    1  A    between atoms: C_3  and  O_5
REMARK    2  A    between atoms: O_5  and  C_8
REMARK    3  A    between atoms: C_14  and  C_15
REMARK    4  A    between atoms: CA_16  and  N_17
REMARK    5  A    between atoms: CA_16  and  C_18
REMARK    6  A    between atoms: C_19  and  C_23
REMARK    7  A    between atoms: C_24  and  C_27
REMARK    8  A    between atoms: C_27  and  C_30
REMARK                            x       y       z     vdW  Elec       q    Type
REMARK                         _______ _______ _______ _____ _____    ______ ____
ROOT
ATOM      1  C   UNL     1      18.873  43.325  45.291  0.00  0.00    +0.000 C 
ATOM      2  CA  UNL     1      17.814  42.567  44.961  0.00  0.00    +0.000 C 
ENDROOT
BRANCH   1   8
ATOM      3  C   UNL     1      21.975  41.798  47.723  0.00  0.00    +0.000 A 
ATOM      4  C   UNL     1      20.752  42.124  48.312  0.00  0.00    +0.000 A 
ATOM      5  C   UNL     1      22.263  42.232  46.424  0.00  0.00    +0.000 A 
ATOM      6  C   UNL     1      19.755  42.742  47.548  0.00  0.00    +0.000 A 
ATOM      7  C   UNL     1      21.262  42.827  45.658  0.00  0.00    +0.000 A 
ATOM      8  C   UNL     1      19.988  43.032  46.198  0.00  0.00    +0.000 A 
BRANCH   3   9
ATOM      9  O   UNL     1      22.856  41.029  48.451  0.00  0.00    +0.000 OA
BRANCH   9  12
ATOM     10 BR   UNL     1      23.989  42.991  50.552  0.00  0.00    +0.000 Br
ATOM     11  C   UNL     1      24.884  42.127  49.118  0.00  0.00    +0.000 A 
ATOM     12  C   UNL     1      24.216  41.242  48.263  0.00  0.00    +0.000 A 
ATOM     13  C   UNL     1      26.246  42.402  48.935  0.00  0.00    +0.000 A 
ATOM     14  C   UNL     1      24.955  40.577  47.271  0.00  0.00    +0.000 A 
ATOM     15  C   UNL     1      26.954  41.782  47.905  0.00  0.00    +0.000 A 
ATOM     16  C   UNL     1      26.310  40.863  47.080  0.00  0.00    +0.000 A 
ENDBRANCH   9  12
ENDBRANCH   3   9
ENDBRANCH   1   8
BRANCH   2  17
ATOM     17  N   UNL     1      17.649  41.242  45.342  0.00  0.00    +0.000 N 
ATOM     18  C   UNL     1      18.259  40.253  44.574  0.00  0.00    +0.000 C 
ATOM     19  O   UNL     1      18.959  40.519  43.604  0.00  0.00    +0.000 OA
ATOM     20  H   UNL     1      17.115  41.008  46.136  0.00  0.00    +0.000 HD
BRANCH  18  21
ATOM     21  C   UNL     1      17.934  38.835  44.908  0.00  0.00    +0.000 A 
ATOM     22  C   UNL     1      17.154  38.496  46.047  0.00  0.00    +0.000 A 
ATOM     23  C   UNL     1      18.309  37.847  43.982  0.00  0.00    +0.000 A 
ATOM     24  C   UNL     1      16.708  37.167  46.162  0.00  0.00    +0.000 A 
ATOM     25  C   UNL     1      17.863  36.536  44.133  0.00  0.00    +0.000 A 
ATOM     26  C   UNL     1      17.049  36.203  45.210  0.00  0.00    +0.000 A 
BRANCH  22  27
ATOM     27  C   UNL     1      16.726  39.543  47.062  0.00  0.00    +0.000 C 
ATOM     28  C   UNL     1      15.259  39.558  47.489  0.00  0.00    +0.000 C 
ENDBRANCH  22  27
ENDBRANCH  18  21
ENDBRANCH   2  17
BRANCH   2  29
ATOM     29  C   UNL     1      16.791  43.224  44.080  0.00  0.00    +0.000 C 
ATOM     30  O   UNL     1      16.314  44.330  44.275  0.00  0.00    +0.000 OA
ATOM     31  OXT UNL     1      16.423  42.438  43.045  0.00  0.00    +0.000 OA
ENDBRANCH   2  29
TORSDOF 7
ENDMDL
MODEL 6
REMARK VINA RESULT:      -6.6      2.190      3.929
REMARK  Name = 319952
REMARK  8 active torsions:
REMARK  status: ('A' for Active; 'I' for Inactive)
REMARK    1  A    between atoms: C_3  and  O_5
REMARK    2  A    between atoms: O_5  and  C_8
REMARK    3  A    between atoms: C_14  and  C_15
REMARK    4  A    between atoms: CA_16  and  N_17
REMARK    5  A    between atoms: CA_16  and  C_18
REMARK    6  A    between atoms: C_19  and  C_23
REMARK    7  A    between atoms: C_24  and  C_27
REMARK    8  A    between atoms: C_27  and  C_30
REMARK                            x       y       z     vdW  Elec       q    Type
REMARK                         _______ _______ _______ _____ _____    ______ ____
ROOT
ATOM      1  C   UNL     1      20.263  39.140  43.909  0.00  0.00    +0.000 C 
ATOM      2  CA  UNL     1      19.083  39.710  44.209  0.00  0.00    +0.000 C 
ENDROOT
BRANCH   1   8
ATOM      3  C   UNL     1      24.123  40.253  45.225  0.00  0.00    +0.000 A 
ATOM      4  C   UNL     1      23.097  41.198  45.262  0.00  0.00    +0.000 A 
ATOM      5  C   UNL     1      23.952  39.063  44.508  0.00  0.00    +0.000 A 
ATOM      6  C   UNL     1      21.845  40.887  44.721  0.00  0.00    +0.000 A 
ATOM      7  C   UNL     1      22.698  38.746  43.988  0.00  0.00    +0.000 A 
ATOM      8  C   UNL     1      21.625  39.631  44.142  0.00  0.00    +0.000 A 
BRANCH   3   9
ATOM      9  O   UNL     1      25.276  40.524  45.928  0.00  0.00    +0.000 OA
BRANCH   9  12
ATOM     10 BR   UNL     1      23.425  38.976  47.858  0.00  0.00    +0.000 Br
ATOM     11  C   UNL     1      24.332  40.621  48.133  0.00  0.00    +0.000 A 
ATOM     12  C   UNL     1      25.157  41.178  47.148  0.00  0.00    +0.000 A 
ATOM     13  C   UNL     1      24.151  41.271  49.361  0.00  0.00    +0.000 A 
ATOM     14  C   UNL     1      25.860  42.356  47.446  0.00  0.00    +0.000 A 
ATOM     15  C   UNL     1      24.807  42.476  49.619  0.00  0.00    +0.000 A 
ATOM     16  C   UNL     1      25.668  43.012  48.666  0.00  0.00    +0.000 A 
ENDBRANCH   9  12
ENDBRANCH   3   9
ENDBRANCH   1   8
BRANCH   2  17
ATOM     17  N   UNL     1      18.941  40.873  44.954  0.00  0.00    +0.000 N 
ATOM     18  C   UNL     1      18.294  40.794  46.185  0.00  0.00    +0.000 C 
ATOM     19  O   UNL     1      17.887  39.731  46.641  0.00  0.00    +0.000 OA
ATOM     20  H   UNL     1      19.288  41.732  44.619  0.00  0.00    +0.000 HD
BRANCH  18  21
ATOM     21  C   UNL     1      18.010  42.079  46.889  0.00  0.00    +0.000 A 
ATOM     22  C   UNL     1      18.977  42.703  47.722  0.00  0.00    +0.000 A 
ATOM     23  C   UNL     1      16.800  42.727  46.593  0.00  0.00    +0.000 A 
ATOM     24  C   UNL     1      18.714  44.012  48.163  0.00  0.00    +0.000 A 
ATOM     25  C   UNL     1      16.563  44.019  47.057  0.00  0.00    +0.000 A 
ATOM     26  C   UNL     1      17.527  44.666  47.824  0.00  0.00    +0.000 A 
BRANCH  22  27
ATOM     27  C   UNL     1      20.299  42.030  48.054  0.00  0.00    +0.000 C 
ATOM     28  C   UNL     1      21.583  42.734  47.617  0.00  0.00    +0.000 C 
ENDBRANCH  22  27
ENDBRANCH  18  21
ENDBRANCH   2  17
BRANCH   2  29
ATOM     29  C   UNL     1      17.865  38.978  43.725  0.00  0.00    +0.000 C 
ATOM     30  O   UNL     1      16.894  39.510  43.210  0.00  0.00    +0.000 OA
ATOM     31  OXT UNL     1      17.941  37.648  43.949  0.00  0.00    +0.000 OA
ENDBRANCH   2  29
TORSDOF 7
ENDMDL
MODEL 7
REMARK VINA RESULT:      -6.4      1.851      2.460
REMARK  Name = 319952
REMARK  8 active torsions:
REMARK  status: ('A' for Active; 'I' for Inactive)
REMARK    1  A    between atoms: C_3  and  O_5
REMARK    2  A    between atoms: O_5  and  C_8
REMARK    3  A    between atoms: C_14  and  C_15
REMARK    4  A    between atoms: CA_16  and  N_17
REMARK    5  A    between atoms: CA_16  and  C_18
REMARK    6  A    between atoms: C_19  and  C_23
REMARK    7  A    between atoms: C_24  and  C_27
REMARK    8  A    between atoms: C_27  and  C_30
REMARK                            x       y       z     vdW  Elec       q    Type
REMARK                         _______ _______ _______ _____ _____    ______ ____
ROOT
ATOM      1  C   UNL     1      18.815  43.741  46.014  0.00  0.00    +0.000 C 
ATOM      2  CA  UNL     1      17.695  43.054  45.734  0.00  0.00    +0.000 C 
ENDROOT
BRANCH   1   8
ATOM      3  C   UNL     1      22.228  41.747  47.513  0.00  0.00    +0.000 A 
ATOM      4  C   UNL     1      21.219  42.123  48.401  0.00  0.00    +0.000 A 
ATOM      5  C   UNL     1      22.245  42.267  46.214  0.00  0.00    +0.000 A 
ATOM      6  C   UNL     1      20.140  42.888  47.945  0.00  0.00    +0.000 A 
ATOM      7  C   UNL     1      21.158  43.011  45.755  0.00  0.00    +0.000 A 
ATOM      8  C   UNL     1      20.076  43.275  46.601  0.00  0.00    +0.000 A 
BRANCH   3   9
ATOM      9  O   UNL     1      23.171  40.845  47.953  0.00  0.00    +0.000 OA
BRANCH   9  12
ATOM     10 BR   UNL     1      25.342  40.028  45.911  0.00  0.00    +0.000 Br
ATOM     11  C   UNL     1      25.523  41.033  47.511  0.00  0.00    +0.000 A 
ATOM     12  C   UNL     1      24.419  41.333  48.319  0.00  0.00    +0.000 A 
ATOM     13  C   UNL     1      26.806  41.471  47.868  0.00  0.00    +0.000 A 
ATOM     14  C   UNL     1      24.611  42.147  49.447  0.00  0.00    +0.000 A 
ATOM     15  C   UNL     1      26.991  42.225  49.027  0.00  0.00    +0.000 A 
ATOM     16  C   UNL     1      25.893  42.572  49.810  0.00  0.00    +0.000 A 
ENDBRANCH   9  12
ENDBRANCH   3   9
ENDBRANCH   1   8
BRANCH   2  17
ATOM     17  N   UNL     1      17.573  41.675  45.837  0.00  0.00    +0.000 N 
ATOM     18  C   UNL     1      17.624  40.919  44.669  0.00  0.00    +0.000 C 
ATOM     19  O   UNL     1      17.809  41.428  43.569  0.00  0.00    +0.000 OA
ATOM     20  H   UNL     1      17.454  41.244  46.714  0.00  0.00    +0.000 HD
BRANCH  18  21
ATOM     21  C   UNL     1      17.330  39.460  44.789  0.00  0.00    +0.000 A 
ATOM     22  C   UNL     1      18.208  38.476  44.261  0.00  0.00    +0.000 A 
ATOM     23  C   UNL     1      16.221  39.084  45.565  0.00  0.00    +0.000 A 
ATOM     24  C   UNL     1      17.972  37.134  44.612  0.00  0.00    +0.000 A 
ATOM     25  C   UNL     1      16.007  37.744  45.883  0.00  0.00    +0.000 A 
ATOM     26  C   UNL     1      16.893  36.776  45.422  0.00  0.00    +0.000 A 
BRANCH  22  27
ATOM     27  C   UNL     1      19.420  38.852  43.425  0.00  0.00    +0.000 C 
ATOM     28  C   UNL     1      20.608  39.487  44.145  0.00  0.00    +0.000 C 
ENDBRANCH  22  27
ENDBRANCH  18  21
ENDBRANCH   2  17
BRANCH   2  29
ATOM     29  C   UNL     1      16.537  43.871  45.234  0.00  0.00    +0.000 C 
ATOM     30  O   UNL     1      16.215  43.976  44.062  0.00  0.00    +0.000 OA
ATOM     31  OXT UNL     1      15.894  44.515  46.233  0.00  0.00    +0.000 OA
ENDBRANCH   2  29
TORSDOF 7
ENDMDL
MODEL 8
REMARK VINA RESULT:      -5.6      3.149      7.290
REMARK  Name = 319952
REMARK  8 active torsions:
REMARK  status: ('A' for Active; 'I' for Inactive)
REMARK    1  A    between atoms: C_3  and  O_5
REMARK    2  A    between atoms: O_5  and  C_8
REMARK    3  A    between atoms: C_14  and  C_15
REMARK    4  A    between atoms: CA_16  and  N_17
REMARK    5  A    between atoms: CA_16  and  C_18
REMARK    6  A    between atoms: C_19  and  C_23
REMARK    7  A    between atoms: C_24  and  C_27
REMARK    8  A    between atoms: C_27  and  C_30
REMARK                            x       y       z     vdW  Elec       q    Type
REMARK                         _______ _______ _______ _____ _____    ______ ____
ROOT
ATOM      1  C   UNL     1      21.270  42.656  49.047  0.00  0.00    +0.000 C 
ATOM      2  CA  UNL     1      22.392  42.181  48.481  0.00  0.00    +0.000 C 
ENDROOT
BRANCH   1   8
ATOM      3  C   UNL     1      17.560  42.471  47.030  0.00  0.00    +0.000 A 
ATOM      4  C   UNL     1      18.003  43.700  47.520  0.00  0.00    +0.000 A 
ATOM      5  C   UNL     1      18.184  41.288  47.442  0.00  0.00    +0.000 A 
ATOM      6  C   UNL     1      19.168  43.762  48.293  0.00  0.00    +0.000 A 
ATOM      7  C   UNL     1      19.356  41.353  48.195  0.00  0.00    +0.000 A 
ATOM      8  C   UNL     1      19.883  42.592  48.574  0.00  0.00    +0.000 A 
BRANCH   3   9
ATOM      9  O   UNL     1      16.522  42.474  46.124  0.00  0.00    +0.000 OA
BRANCH   9  12
ATOM     10 BR   UNL     1      16.090  39.417  46.242  0.00  0.00    +0.000 Br
ATOM     11  C   UNL     1      16.605  40.495  44.768  0.00  0.00    +0.000 A 
ATOM     12  C   UNL     1      16.736  41.885  44.885  0.00  0.00    +0.000 A 
ATOM     13  C   UNL     1      16.855  39.857  43.545  0.00  0.00    +0.000 A 
ATOM     14  C   UNL     1      17.044  42.631  43.736  0.00  0.00    +0.000 A 
ATOM     15  C   UNL     1      17.222  40.607  42.426  0.00  0.00    +0.000 A 
ATOM     16  C   UNL     1      17.306  41.993  42.520  0.00  0.00    +0.000 A 
ENDBRANCH   9  12
ENDBRANCH   3   9
ENDBRANCH   1   8
BRANCH   2  17
ATOM     17  N   UNL     1      22.420  41.384  47.344  0.00  0.00    +0.000 N 
ATOM     18  C   UNL     1      22.131  41.976  46.116  0.00  0.00    +0.000 C 
ATOM     19  O   UNL     1      21.892  43.173  46.009  0.00  0.00    +0.000 OA
ATOM     20  H   UNL     1      22.639  40.426  47.404  0.00  0.00    +0.000 HD
BRANCH  18  21
ATOM     21  C   UNL     1      22.008  41.070  44.936  0.00  0.00    +0.000 A 
ATOM     22  C   UNL     1      22.903  39.985  44.732  0.00  0.00    +0.000 A 
ATOM     23  C   UNL     1      20.892  41.240  44.101  0.00  0.00    +0.000 A 
ATOM     24  C   UNL     1      22.584  39.054  43.728  0.00  0.00    +0.000 A 
ATOM     25  C   UNL     1      20.612  40.307  43.104  0.00  0.00    +0.000 A 
ATOM     26  C   UNL     1      21.446  39.208  42.933  0.00  0.00    +0.000 A 
BRANCH  22  27
ATOM     27  C   UNL     1      24.115  39.770  45.624  0.00  0.00    +0.000 C 
ATOM     28  C   UNL     1      24.289  38.394  46.264  0.00  0.00    +0.000 C 
ENDBRANCH  22  27
ENDBRANCH  18  21
ENDBRANCH   2  17
BRANCH   2  29
ATOM     29  C   UNL     1      23.673  42.521  49.186  0.00  0.00    +0.000 C 
ATOM     30  O   UNL     1      23.744  43.119  50.248  0.00  0.00    +0.000 OA
ATOM     31  OXT UNL     1      24.762  42.116  48.497  0.00  0.00    +0.000 OA
ENDBRANCH   2  29
TORSDOF 7
ENDMDL
