MODEL 1
REMARK VINA RESULT:      -8.1      0.000      0.000
REMARK  Name = 319853
REMARK  6 active torsions:
REMARK  status: ('A' for Active; 'I' for Inactive)
REMARK    1  A    between atoms: C_3  and  O_5
REMARK    2  A    between atoms: O_5  and  C_8
REMARK    3  A    between atoms: C_14  and  C_15
REMARK    4  A    between atoms: CA_16  and  N_17
REMARK    5  A    between atoms: CA_16  and  C_18
REMARK    6  A    between atoms: C_19  and  C_23
REMARK                            x       y       z     vdW  Elec       q    Type
REMARK                         _______ _______ _______ _____ _____    ______ ____
ROOT
ATOM      1  C   UNL     1      20.176  42.477  43.479  0.00  0.00    +0.000 C 
ATOM      2  CA  UNL     1      19.036  41.854  43.127  0.00  0.00    +0.000 C 
ENDROOT
BRANCH   1   8
ATOM      3  C   UNL     1      22.433  41.236  46.848  0.00  0.00    +0.000 A 
ATOM      4  C   UNL     1      21.971  42.549  46.786  0.00  0.00    +0.000 A 
ATOM      5  C   UNL     1      22.383  40.425  45.711  0.00  0.00    +0.000 A 
ATOM      6  C   UNL     1      21.314  43.000  45.635  0.00  0.00    +0.000 A 
ATOM      7  C   UNL     1      21.708  40.868  44.571  0.00  0.00    +0.000 A 
ATOM      8  C   UNL     1      21.128  42.142  44.545  0.00  0.00    +0.000 A 
BRANCH   3   9
ATOM      9  O   UNL     1      22.899  40.778  48.063  0.00  0.00    +0.000 OA
BRANCH   9  12
ATOM     10 BR   UNL     1      25.675  40.543  46.727  0.00  0.00    +0.000 Br
ATOM     11  C   UNL     1      25.167  41.526  48.269  0.00  0.00    +0.000 A 
ATOM     12  C   UNL     1      23.843  41.550  48.722  0.00  0.00    +0.000 A 
ATOM     13  C   UNL     1      26.162  42.236  48.954  0.00  0.00    +0.000 A 
ATOM     14  C   UNL     1      23.517  42.372  49.813  0.00  0.00    +0.000 A 
ATOM     15  C   UNL     1      25.836  42.987  50.084  0.00  0.00    +0.000 A 
ATOM     16  C   UNL     1      24.512  43.065  50.506  0.00  0.00    +0.000 A 
ENDBRANCH   9  12
ENDBRANCH   3   9
ENDBRANCH   1   8
BRANCH   2  17
ATOM     17  N   UNL     1      18.592  40.632  43.611  0.00  0.00    +0.000 N 
ATOM     18  C   UNL     1      17.694  40.554  44.655  0.00  0.00    +0.000 C 
ATOM     19  O   UNL     1      17.322  41.531  45.306  0.00  0.00    +0.000 OA
ATOM     20  H   UNL     1      18.926  39.801  43.200  0.00  0.00    +0.000 HD
BRANCH  18  21
ATOM     21  C   UNL     1      17.280  39.198  45.102  0.00  0.00    +0.000 A 
ATOM     22  C   UNL     1      17.793  38.095  44.405  0.00  0.00    +0.000 A 
ATOM     23  C   UNL     1      16.469  38.995  46.223  0.00  0.00    +0.000 A 
ATOM     24  C   UNL     1      17.515  36.798  44.831  0.00  0.00    +0.000 A 
ATOM     25  C   UNL     1      16.195  37.691  46.650  0.00  0.00    +0.000 A 
ATOM     26  C   UNL     1      16.723  36.598  45.960  0.00  0.00    +0.000 A 
ENDBRANCH  18  21
ENDBRANCH   2  17
BRANCH   2  27
ATOM     27  C   UNL     1      18.190  42.570  42.119  0.00  0.00    +0.000 C 
ATOM     28  O   UNL     1      18.341  43.725  41.762  0.00  0.00    +0.000 OA
ATOM     29  OXT UNL     1      17.205  41.768  41.651  0.00  0.00    +0.000 OA
ENDBRANCH   2  27
TORSDOF 6
ENDMDL
MODEL 2
REMARK VINA RESULT:      -7.4      3.197      7.822
REMARK  Name = 319853
REMARK  6 active torsions:
REMARK  status: ('A' for Active; 'I' for Inactive)
REMARK    1  A    between atoms: C_3  and  O_5
REMARK    2  A    between atoms: O_5  and  C_8
REMARK    3  A    between atoms: C_14  and  C_15
REMARK    4  A    between atoms: CA_16  and  N_17
REMARK    5  A    between atoms: CA_16  and  C_18
REMARK    6  A    between atoms: C_19  and  C_23
REMARK                            x       y       z     vdW  Elec       q    Type
REMARK                         _______ _______ _______ _____ _____    ______ ____
ROOT
ATOM      1  C   UNL     1      23.221  38.950  44.679  0.00  0.00    +0.000 C 
ATOM      2  CA  UNL     1      23.850  38.780  45.856  0.00  0.00    +0.000 C 
ENDROOT
BRANCH   1   8
ATOM      3  C   UNL     1      20.197  41.833  43.949  0.00  0.00    +0.000 A 
ATOM      4  C   UNL     1      20.223  40.667  43.186  0.00  0.00    +0.000 A 
ATOM      5  C   UNL     1      21.292  42.165  44.751  0.00  0.00    +0.000 A 
ATOM      6  C   UNL     1      21.274  39.756  43.345  0.00  0.00    +0.000 A 
ATOM      7  C   UNL     1      22.329  41.246  44.926  0.00  0.00    +0.000 A 
ATOM      8  C   UNL     1      22.301  40.016  44.261  0.00  0.00    +0.000 A 
BRANCH   3   9
ATOM      9  O   UNL     1      19.053  42.603  43.901  0.00  0.00    +0.000 OA
BRANCH   9  12
ATOM     10 BR   UNL     1      16.816  40.473  43.985  0.00  0.00    +0.000 Br
ATOM     11  C   UNL     1      17.215  41.841  45.238  0.00  0.00    +0.000 A 
ATOM     12  C   UNL     1      18.300  42.709  45.060  0.00  0.00    +0.000 A 
ATOM     13  C   UNL     1      16.388  41.967  46.362  0.00  0.00    +0.000 A 
ATOM     14  C   UNL     1      18.596  43.637  46.070  0.00  0.00    +0.000 A 
ATOM     15  C   UNL     1      16.649  42.947  47.320  0.00  0.00    +0.000 A 
ATOM     16  C   UNL     1      17.760  43.774  47.181  0.00  0.00    +0.000 A 
ENDBRANCH   9  12
ENDBRANCH   3   9
ENDBRANCH   1   8
BRANCH   2  17
ATOM     17  N   UNL     1      23.886  39.693  46.900  0.00  0.00    +0.000 N 
ATOM     18  C   UNL     1      24.879  40.647  46.990  0.00  0.00    +0.000 C 
ATOM     19  O   UNL     1      25.855  40.682  46.241  0.00  0.00    +0.000 OA
ATOM     20  H   UNL     1      23.187  39.659  47.594  0.00  0.00    +0.000 HD
BRANCH  18  21
ATOM     21  C   UNL     1      24.830  41.578  48.147  0.00  0.00    +0.000 A 
ATOM     22  C   UNL     1      23.585  41.807  48.750  0.00  0.00    +0.000 A 
ATOM     23  C   UNL     1      25.980  42.163  48.685  0.00  0.00    +0.000 A 
ATOM     24  C   UNL     1      23.488  42.598  49.893  0.00  0.00    +0.000 A 
ATOM     25  C   UNL     1      25.880  42.954  49.835  0.00  0.00    +0.000 A 
ATOM     26  C   UNL     1      24.638  43.163  50.440  0.00  0.00    +0.000 A 
ENDBRANCH  18  21
ENDBRANCH   2  17
BRANCH   2  27
ATOM     27  C   UNL     1      24.567  37.476  46.026  0.00  0.00    +0.000 C 
ATOM     28  O   UNL     1      25.585  37.149  45.443  0.00  0.00    +0.000 OA
ATOM     29  OXT UNL     1      23.928  36.680  46.915  0.00  0.00    +0.000 OA
ENDBRANCH   2  27
TORSDOF 6
ENDMDL
MODEL 3
REMARK VINA RESULT:      -6.6      1.537      2.162
REMARK  Name = 319853
REMARK  6 active torsions:
REMARK  status: ('A' for Active; 'I' for Inactive)
REMARK    1  A    between atoms: C_3  and  O_5
REMARK    2  A    between atoms: O_5  and  C_8
REMARK    3  A    between atoms: C_14  and  C_15
REMARK    4  A    between atoms: CA_16  and  N_17
REMARK    5  A    between atoms: CA_16  and  C_18
REMARK    6  A    between atoms: C_19  and  C_23
REMARK                            x       y       z     vdW  Elec       q    Type
REMARK                         _______ _______ _______ _____ _____    ______ ____
ROOT
ATOM      1  C   UNL     1      19.687  42.683  44.021  0.00  0.00    +0.000 C 
ATOM      2  CA  UNL     1      18.640  41.996  43.529  0.00  0.00    +0.000 C 
ENDROOT
BRANCH   1   8
ATOM      3  C   UNL     1      21.909  41.888  47.545  0.00  0.00    +0.000 A 
ATOM      4  C   UNL     1      20.626  41.359  47.416  0.00  0.00    +0.000 A 
ATOM      5  C   UNL     1      22.350  42.872  46.655  0.00  0.00    +0.000 A 
ATOM      6  C   UNL     1      19.843  41.698  46.306  0.00  0.00    +0.000 A 
ATOM      7  C   UNL     1      21.578  43.193  45.536  0.00  0.00    +0.000 A 
ATOM      8  C   UNL     1      20.341  42.571  45.331  0.00  0.00    +0.000 A 
BRANCH   3   9
ATOM      9  O   UNL     1      22.713  41.382  48.545  0.00  0.00    +0.000 OA
BRANCH   9  12
ATOM     10 BR   UNL     1      24.218  43.093  50.632  0.00  0.00    +0.000 Br
ATOM     11  C   UNL     1      24.910  42.120  49.157  0.00  0.00    +0.000 A 
ATOM     12  C   UNL     1      24.081  41.361  48.323  0.00  0.00    +0.000 A 
ATOM     13  C   UNL     1      26.289  42.181  48.916  0.00  0.00    +0.000 A 
ATOM     14  C   UNL     1      24.668  40.590  47.306  0.00  0.00    +0.000 A 
ATOM     15  C   UNL     1      26.848  41.471  47.854  0.00  0.00    +0.000 A 
ATOM     16  C   UNL     1      26.040  40.665  47.056  0.00  0.00    +0.000 A 
ENDBRANCH   9  12
ENDBRANCH   3   9
ENDBRANCH   1   8
BRANCH   2  17
ATOM     17  N   UNL     1      18.040  40.892  44.118  0.00  0.00    +0.000 N 
ATOM     18  C   UNL     1      18.638  39.648  44.092  0.00  0.00    +0.000 C 
ATOM     19  O   UNL     1      19.661  39.400  43.453  0.00  0.00    +0.000 OA
ATOM     20  H   UNL     1      17.168  40.998  44.564  0.00  0.00    +0.000 HD
BRANCH  18  21
ATOM     21  C   UNL     1      17.915  38.529  44.750  0.00  0.00    +0.000 A 
ATOM     22  C   UNL     1      17.115  38.830  45.861  0.00  0.00    +0.000 A 
ATOM     23  C   UNL     1      17.953  37.221  44.255  0.00  0.00    +0.000 A 
ATOM     24  C   UNL     1      16.343  37.840  46.465  0.00  0.00    +0.000 A 
ATOM     25  C   UNL     1      17.172  36.231  44.862  0.00  0.00    +0.000 A 
ATOM     26  C   UNL     1      16.365  36.543  45.958  0.00  0.00    +0.000 A 
ENDBRANCH  18  21
ENDBRANCH   2  17
BRANCH   2  27
ATOM     27  C   UNL     1      18.092  42.493  42.226  0.00  0.00    +0.000 C 
ATOM     28  O   UNL     1      18.449  43.505  41.650  0.00  0.00    +0.000 OA
ATOM     29  OXT UNL     1      17.122  41.672  41.761  0.00  0.00    +0.000 OA
ENDBRANCH   2  27
TORSDOF 6
ENDMDL
MODEL 4
REMARK VINA RESULT:      -6.4      2.870      8.116
REMARK  Name = 319853
REMARK  6 active torsions:
REMARK  status: ('A' for Active; 'I' for Inactive)
REMARK    1  A    between atoms: C_3  and  O_5
REMARK    2  A    between atoms: O_5  and  C_8
REMARK    3  A    between atoms: C_14  and  C_15
REMARK    4  A    between atoms: CA_16  and  N_17
REMARK    5  A    between atoms: CA_16  and  C_18
REMARK    6  A    between atoms: C_19  and  C_23
REMARK                            x       y       z     vdW  Elec       q    Type
REMARK                         _______ _______ _______ _____ _____    ______ ____
ROOT
ATOM      1  C   UNL     1      23.119  38.938  44.660  0.00  0.00    +0.000 C 
ATOM      2  CA  UNL     1      23.906  38.855  45.748  0.00  0.00    +0.000 C 
ENDROOT
BRANCH   1   8
ATOM      3  C   UNL     1      19.397  40.945  44.337  0.00  0.00    +0.000 A 
ATOM      4  C   UNL     1      19.817  40.120  43.295  0.00  0.00    +0.000 A 
ATOM      5  C   UNL     1      20.296  41.310  45.343  0.00  0.00    +0.000 A 
ATOM      6  C   UNL     1      21.088  39.534  43.342  0.00  0.00    +0.000 A 
ATOM      7  C   UNL     1      21.555  40.708  45.401  0.00  0.00    +0.000 A 
ATOM      8  C   UNL     1      21.939  39.780  44.426  0.00  0.00    +0.000 A 
BRANCH   3   9
ATOM      9  O   UNL     1      18.076  41.344  44.344  0.00  0.00    +0.000 OA
BRANCH   9  12
ATOM     10 BR   UNL     1      17.147  43.095  46.714  0.00  0.00    +0.000 Br
ATOM     11  C   UNL     1      16.714  41.291  46.316  0.00  0.00    +0.000 A 
ATOM     12  C   UNL     1      17.200  40.654  45.169  0.00  0.00    +0.000 A 
ATOM     13  C   UNL     1      15.886  40.599  47.211  0.00  0.00    +0.000 A 
ATOM     14  C   UNL     1      16.767  39.349  44.885  0.00  0.00    +0.000 A 
ATOM     15  C   UNL     1      15.527  39.276  46.954  0.00  0.00    +0.000 A 
ATOM     16  C   UNL     1      15.956  38.655  45.786  0.00  0.00    +0.000 A 
ENDBRANCH   9  12
ENDBRANCH   3   9
ENDBRANCH   1   8
BRANCH   2  17
ATOM     17  N   UNL     1      23.857  39.692  46.854  0.00  0.00    +0.000 N 
ATOM     18  C   UNL     1      24.764  40.719  47.021  0.00  0.00    +0.000 C 
ATOM     19  O   UNL     1      25.737  40.891  46.287  0.00  0.00    +0.000 OA
ATOM     20  H   UNL     1      23.161  39.549  47.536  0.00  0.00    +0.000 HD
BRANCH  18  21
ATOM     21  C   UNL     1      24.629  41.559  48.240  0.00  0.00    +0.000 A 
ATOM     22  C   UNL     1      25.795  42.120  48.779  0.00  0.00    +0.000 A 
ATOM     23  C   UNL     1      23.386  41.859  48.807  0.00  0.00    +0.000 A 
ATOM     24  C   UNL     1      25.723  42.989  49.867  0.00  0.00    +0.000 A 
ATOM     25  C   UNL     1      23.318  42.735  49.896  0.00  0.00    +0.000 A 
ATOM     26  C   UNL     1      24.482  43.303  50.418  0.00  0.00    +0.000 A 
ENDBRANCH  18  21
ENDBRANCH   2  17
BRANCH   2  27
ATOM     27  C   UNL     1      24.915  37.749  45.737  0.00  0.00    +0.000 C 
ATOM     28  O   UNL     1      26.024  37.810  45.237  0.00  0.00    +0.000 OA
ATOM     29  OXT UNL     1      24.433  36.643  46.351  0.00  0.00    +0.000 OA
ENDBRANCH   2  27
TORSDOF 6
ENDMDL
MODEL 5
REMARK VINA RESULT:      -6.3      1.602      2.032
REMARK  Name = 319853
REMARK  6 active torsions:
REMARK  status: ('A' for Active; 'I' for Inactive)
REMARK    1  A    between atoms: C_3  and  O_5
REMARK    2  A    between atoms: O_5  and  C_8
REMARK    3  A    between atoms: C_14  and  C_15
REMARK    4  A    between atoms: CA_16  and  N_17
REMARK    5  A    between atoms: CA_16  and  C_18
REMARK    6  A    between atoms: C_19  and  C_23
REMARK                            x       y       z     vdW  Elec       q    Type
REMARK                         _______ _______ _______ _____ _____    ______ ____
ROOT
ATOM      1  C   UNL     1      19.295  42.893  45.634  0.00  0.00    +0.000 C 
ATOM      2  CA  UNL     1      18.128  42.327  45.275  0.00  0.00    +0.000 C 
ENDROOT
BRANCH   1   8
ATOM      3  C   UNL     1      22.892  41.238  47.153  0.00  0.00    +0.000 A 
ATOM      4  C   UNL     1      22.929  42.481  46.523  0.00  0.00    +0.000 A 
ATOM      5  C   UNL     1      21.751  40.438  47.052  0.00  0.00    +0.000 A 
ATOM      6  C   UNL     1      21.769  42.991  45.927  0.00  0.00    +0.000 A 
ATOM      7  C   UNL     1      20.588  40.957  46.476  0.00  0.00    +0.000 A 
ATOM      8  C   UNL     1      20.579  42.255  45.954  0.00  0.00    +0.000 A 
BRANCH   3   9
ATOM      9  O   UNL     1      23.997  40.861  47.890  0.00  0.00    +0.000 OA
BRANCH   9  12
ATOM     10 BR   UNL     1      26.993  41.574  47.640  0.00  0.00    +0.000 Br
ATOM     11  C   UNL     1      25.746  42.090  48.974  0.00  0.00    +0.000 A 
ATOM     12  C   UNL     1      24.403  41.702  48.915  0.00  0.00    +0.000 A 
ATOM     13  C   UNL     1      26.207  42.878  50.037  0.00  0.00    +0.000 A 
ATOM     14  C   UNL     1      23.513  42.195  49.883  0.00  0.00    +0.000 A 
ATOM     15  C   UNL     1      25.326  43.296  51.034  0.00  0.00    +0.000 A 
ATOM     16  C   UNL     1      23.977  42.966  50.951  0.00  0.00    +0.000 A 
ENDBRANCH   9  12
ENDBRANCH   3   9
ENDBRANCH   1   8
BRANCH   2  17
ATOM     17  N   UNL     1      17.931  40.988  44.969  0.00  0.00    +0.000 N 
ATOM     18  C   UNL     1      17.556  40.076  45.934  0.00  0.00    +0.000 C 
ATOM     19  O   UNL     1      17.491  40.345  47.134  0.00  0.00    +0.000 OA
ATOM     20  H   UNL     1      18.063  40.681  44.042  0.00  0.00    +0.000 HD
BRANCH  18  21
ATOM     21  C   UNL     1      17.372  38.665  45.506  0.00  0.00    +0.000 A 
ATOM     22  C   UNL     1      16.407  37.899  46.176  0.00  0.00    +0.000 A 
ATOM     23  C   UNL     1      18.068  38.114  44.426  0.00  0.00    +0.000 A 
ATOM     24  C   UNL     1      16.125  36.599  45.762  0.00  0.00    +0.000 A 
ATOM     25  C   UNL     1      17.778  36.810  44.010  0.00  0.00    +0.000 A 
ATOM     26  C   UNL     1      16.805  36.059  44.673  0.00  0.00    +0.000 A 
ENDBRANCH  18  21
ENDBRANCH   2  17
BRANCH   2  27
ATOM     27  C   UNL     1      16.951  43.252  45.211  0.00  0.00    +0.000 C 
ATOM     28  O   UNL     1      16.494  43.742  44.194  0.00  0.00    +0.000 OA
ATOM     29  OXT UNL     1      16.453  43.494  46.446  0.00  0.00    +0.000 OA
ENDBRANCH   2  27
TORSDOF 6
ENDMDL
MODEL 6
REMARK VINA RESULT:      -6.3      2.899      7.165
REMARK  Name = 319853
REMARK  6 active torsions:
REMARK  status: ('A' for Active; 'I' for Inactive)
REMARK    1  A    between atoms: C_3  and  O_5
REMARK    2  A    between atoms: O_5  and  C_8
REMARK    3  A    between atoms: C_14  and  C_15
REMARK    4  A    between atoms: CA_16  and  N_17
REMARK    5  A    between atoms: CA_16  and  C_18
REMARK    6  A    between atoms: C_19  and  C_23
REMARK                            x       y       z     vdW  Elec       q    Type
REMARK                         _______ _______ _______ _____ _____    ______ ____
ROOT
ATOM      1  C   UNL     1      24.023  40.748  45.986  0.00  0.00    +0.000 C 
ATOM      2  CA  UNL     1      23.785  41.596  47.003  0.00  0.00    +0.000 C 
ENDROOT
BRANCH   1   8
ATOM      3  C   UNL     1      20.905  39.426  43.434  0.00  0.00    +0.000 A 
ATOM      4  C   UNL     1      21.628  38.486  44.167  0.00  0.00    +0.000 A 
ATOM      5  C   UNL     1      21.367  40.741  43.339  0.00  0.00    +0.000 A 
ATOM      6  C   UNL     1      22.725  38.898  44.933  0.00  0.00    +0.000 A 
ATOM      7  C   UNL     1      22.448  41.156  44.120  0.00  0.00    +0.000 A 
ATOM      8  C   UNL     1      23.103  40.246  44.958  0.00  0.00    +0.000 A 
BRANCH   3   9
ATOM      9  O   UNL     1      19.725  39.012  42.852  0.00  0.00    +0.000 OA
BRANCH   9  12
ATOM     10 BR   UNL     1      17.942  41.535  42.886  0.00  0.00    +0.000 Br
ATOM     11  C   UNL     1      17.733  39.908  43.839  0.00  0.00    +0.000 A 
ATOM     12  C   UNL     1      18.625  38.841  43.678  0.00  0.00    +0.000 A 
ATOM     13  C   UNL     1      16.652  39.797  44.724  0.00  0.00    +0.000 A 
ATOM     14  C   UNL     1      18.361  37.633  44.342  0.00  0.00    +0.000 A 
ATOM     15  C   UNL     1      16.446  38.616  45.436  0.00  0.00    +0.000 A 
ATOM     16  C   UNL     1      17.293  37.529  45.236  0.00  0.00    +0.000 A 
ENDBRANCH   9  12
ENDBRANCH   3   9
ENDBRANCH   1   8
BRANCH   2  17
ATOM     17  N   UNL     1      22.618  42.321  47.204  0.00  0.00    +0.000 N 
ATOM     18  C   UNL     1      21.408  41.693  47.417  0.00  0.00    +0.000 C 
ATOM     19  O   UNL     1      21.248  40.476  47.322  0.00  0.00    +0.000 OA
ATOM     20  H   UNL     1      22.654  43.305  47.194  0.00  0.00    +0.000 HD
BRANCH  18  21
ATOM     21  C   UNL     1      20.216  42.557  47.620  0.00  0.00    +0.000 A 
ATOM     22  C   UNL     1      19.584  43.078  46.483  0.00  0.00    +0.000 A 
ATOM     23  C   UNL     1      19.675  42.798  48.887  0.00  0.00    +0.000 A 
ATOM     24  C   UNL     1      18.410  43.820  46.604  0.00  0.00    +0.000 A 
ATOM     25  C   UNL     1      18.495  43.540  49.004  0.00  0.00    +0.000 A 
ATOM     26  C   UNL     1      17.862  44.042  47.865  0.00  0.00    +0.000 A 
ENDBRANCH  18  21
ENDBRANCH   2  17
BRANCH   2  27
ATOM     27  C   UNL     1      24.898  41.751  47.994  0.00  0.00    +0.000 C 
ATOM     28  O   UNL     1      26.079  41.569  47.762  0.00  0.00    +0.000 OA
ATOM     29  OXT UNL     1      24.422  42.112  49.209  0.00  0.00    +0.000 OA
ENDBRANCH   2  27
TORSDOF 6
ENDMDL
MODEL 7
REMARK VINA RESULT:      -6.2      2.368      3.703
REMARK  Name = 319853
REMARK  6 active torsions:
REMARK  status: ('A' for Active; 'I' for Inactive)
REMARK    1  A    between atoms: C_3  and  O_5
REMARK    2  A    between atoms: O_5  and  C_8
REMARK    3  A    between atoms: C_14  and  C_15
REMARK    4  A    between atoms: CA_16  and  N_17
REMARK    5  A    between atoms: CA_16  and  C_18
REMARK    6  A    between atoms: C_19  and  C_23
REMARK                            x       y       z     vdW  Elec       q    Type
REMARK                         _______ _______ _______ _____ _____    ______ ____
ROOT
ATOM      1  C   UNL     1      20.288  39.039  44.043  0.00  0.00    +0.000 C 
ATOM      2  CA  UNL     1      19.059  39.429  44.428  0.00  0.00    +0.000 C 
ENDROOT
BRANCH   1   8
ATOM      3  C   UNL     1      23.892  40.464  45.764  0.00  0.00    +0.000 A 
ATOM      4  C   UNL     1      22.905  41.378  45.400  0.00  0.00    +0.000 A 
ATOM      5  C   UNL     1      23.808  39.138  45.331  0.00  0.00    +0.000 A 
ATOM      6  C   UNL     1      21.755  40.931  44.738  0.00  0.00    +0.000 A 
ATOM      7  C   UNL     1      22.652  38.689  44.689  0.00  0.00    +0.000 A 
ATOM      8  C   UNL     1      21.599  39.574  44.433  0.00  0.00    +0.000 A 
BRANCH   3   9
ATOM      9  O   UNL     1      24.911  40.913  46.580  0.00  0.00    +0.000 OA
BRANCH   9  12
ATOM     10 BR   UNL     1      27.399  41.642  48.260  0.00  0.00    +0.000 Br
ATOM     11  C   UNL     1      25.566  41.943  48.643  0.00  0.00    +0.000 A 
ATOM     12  C   UNL     1      24.557  41.575  47.745  0.00  0.00    +0.000 A 
ATOM     13  C   UNL     1      25.239  42.547  49.864  0.00  0.00    +0.000 A 
ATOM     14  C   UNL     1      23.227  41.911  48.047  0.00  0.00    +0.000 A 
ATOM     15  C   UNL     1      23.906  42.804  50.185  0.00  0.00    +0.000 A 
ATOM     16  C   UNL     1      22.901  42.498  49.272  0.00  0.00    +0.000 A 
ENDBRANCH   9  12
ENDBRANCH   3   9
ENDBRANCH   1   8
BRANCH   2  17
ATOM     17  N   UNL     1      18.771  40.346  45.430  0.00  0.00    +0.000 N 
ATOM     18  C   UNL     1      18.443  41.653  45.137  0.00  0.00    +0.000 C 
ATOM     19  O   UNL     1      18.500  42.131  44.004  0.00  0.00    +0.000 OA
ATOM     20  H   UNL     1      18.803  40.056  46.371  0.00  0.00    +0.000 HD
BRANCH  18  21
ATOM     21  C   UNL     1      18.153  42.557  46.281  0.00  0.00    +0.000 A 
ATOM     22  C   UNL     1      19.121  42.668  47.289  0.00  0.00    +0.000 A 
ATOM     23  C   UNL     1      16.996  43.341  46.341  0.00  0.00    +0.000 A 
ATOM     24  C   UNL     1      18.947  43.566  48.340  0.00  0.00    +0.000 A 
ATOM     25  C   UNL     1      16.827  44.245  47.395  0.00  0.00    +0.000 A 
ATOM     26  C   UNL     1      17.804  44.361  48.387  0.00  0.00    +0.000 A 
ENDBRANCH  18  21
ENDBRANCH   2  17
BRANCH   2  27
ATOM     27  C   UNL     1      17.917  38.802  43.689  0.00  0.00    +0.000 C 
ATOM     28  O   UNL     1      17.084  39.404  43.034  0.00  0.00    +0.000 OA
ATOM     29  OXT UNL     1      17.911  37.458  43.850  0.00  0.00    +0.000 OA
ENDBRANCH   2  27
TORSDOF 6
ENDMDL
MODEL 8
REMARK VINA RESULT:      -6.0      1.787      2.372
REMARK  Name = 319853
REMARK  6 active torsions:
REMARK  status: ('A' for Active; 'I' for Inactive)
REMARK    1  A    between atoms: C_3  and  O_5
REMARK    2  A    between atoms: O_5  and  C_8
REMARK    3  A    between atoms: C_14  and  C_15
REMARK    4  A    between atoms: CA_16  and  N_17
REMARK    5  A    between atoms: CA_16  and  C_18
REMARK    6  A    between atoms: C_19  and  C_23
REMARK                            x       y       z     vdW  Elec       q    Type
REMARK                         _______ _______ _______ _____ _____    ______ ____
ROOT
ATOM      1  C   UNL     1      19.109  43.301  45.209  0.00  0.00    +0.000 C 
ATOM      2  CA  UNL     1      17.949  42.691  45.514  0.00  0.00    +0.000 C 
ENDROOT
BRANCH   1   8
ATOM      3  C   UNL     1      22.810  41.235  45.334  0.00  0.00    +0.000 A 
ATOM      4  C   UNL     1      22.650  42.390  46.098  0.00  0.00    +0.000 A 
ATOM      5  C   UNL     1      21.870  40.914  44.350  0.00  0.00    +0.000 A 
ATOM      6  C   UNL     1      21.472  43.138  45.987  0.00  0.00    +0.000 A 
ATOM      7  C   UNL     1      20.686  41.648  44.256  0.00  0.00    +0.000 A 
ATOM      8  C   UNL     1      20.460  42.735  45.107  0.00  0.00    +0.000 A 
BRANCH   3   9
ATOM      9  O   UNL     1      23.894  40.428  45.613  0.00  0.00    +0.000 OA
BRANCH   9  12
ATOM     10 BR   UNL     1      23.346  39.060  48.328  0.00  0.00    +0.000 Br
ATOM     11  C   UNL     1      24.648  40.367  47.887  0.00  0.00    +0.000 A 
ATOM     12  C   UNL     1      24.784  40.860  46.584  0.00  0.00    +0.000 A 
ATOM     13  C   UNL     1      25.483  40.837  48.910  0.00  0.00    +0.000 A 
ATOM     14  C   UNL     1      25.828  41.756  46.305  0.00  0.00    +0.000 A 
ATOM     15  C   UNL     1      26.466  41.786  48.633  0.00  0.00    +0.000 A 
ATOM     16  C   UNL     1      26.648  42.237  47.329  0.00  0.00    +0.000 A 
ENDBRANCH   9  12
ENDBRANCH   3   9
ENDBRANCH   1   8
BRANCH   2  17
ATOM     17  N   UNL     1      17.758  41.322  45.646  0.00  0.00    +0.000 N 
ATOM     18  C   UNL     1      17.285  40.557  44.599  0.00  0.00    +0.000 C 
ATOM     19  O   UNL     1      16.886  41.033  43.536  0.00  0.00    +0.000 OA
ATOM     20  H   UNL     1      17.965  40.888  46.505  0.00  0.00    +0.000 HD
BRANCH  18  21
ATOM     21  C   UNL     1      17.114  39.100  44.840  0.00  0.00    +0.000 A 
ATOM     22  C   UNL     1      17.945  38.219  44.134  0.00  0.00    +0.000 A 
ATOM     23  C   UNL     1      16.216  38.600  45.788  0.00  0.00    +0.000 A 
ATOM     24  C   UNL     1      17.894  36.849  44.383  0.00  0.00    +0.000 A 
ATOM     25  C   UNL     1      16.172  37.224  46.038  0.00  0.00    +0.000 A 
ATOM     26  C   UNL     1      17.014  36.354  45.342  0.00  0.00    +0.000 A 
ENDBRANCH  18  21
ENDBRANCH   2  17
BRANCH   2  27
ATOM     27  C   UNL     1      16.775  43.596  45.728  0.00  0.00    +0.000 C 
ATOM     28  O   UNL     1      16.269  43.854  46.805  0.00  0.00    +0.000 OA
ATOM     29  OXT UNL     1      16.324  44.094  44.553  0.00  0.00    +0.000 OA
ENDBRANCH   2  27
TORSDOF 6
ENDMDL
MODEL 9
REMARK VINA RESULT:      -5.8      2.021      2.885
REMARK  Name = 319853
REMARK  6 active torsions:
REMARK  status: ('A' for Active; 'I' for Inactive)
REMARK    1  A    between atoms: C_3  and  O_5
REMARK    2  A    between atoms: O_5  and  C_8
REMARK    3  A    between atoms: C_14  and  C_15
REMARK    4  A    between atoms: CA_16  and  N_17
REMARK    5  A    between atoms: CA_16  and  C_18
REMARK    6  A    between atoms: C_19  and  C_23
REMARK                            x       y       z     vdW  Elec       q    Type
REMARK                         _______ _______ _______ _____ _____    ______ ____
ROOT
ATOM      1  C   UNL     1      18.071  42.514  42.536  0.00  0.00    +0.000 C 
ATOM      2  CA  UNL     1      17.188  41.517  42.340  0.00  0.00    +0.000 C 
ENDROOT
BRANCH   1   8
ATOM      3  C   UNL     1      20.169  42.961  46.195  0.00  0.00    +0.000 A 
ATOM      4  C   UNL     1      18.800  43.221  46.160  0.00  0.00    +0.000 A 
ATOM      5  C   UNL     1      20.881  42.815  45.001  0.00  0.00    +0.000 A 
ATOM      6  C   UNL     1      18.116  43.177  44.939  0.00  0.00    +0.000 A 
ATOM      7  C   UNL     1      20.195  42.749  43.786  0.00  0.00    +0.000 A 
ATOM      8  C   UNL     1      18.802  42.882  43.755  0.00  0.00    +0.000 A 
BRANCH   3   9
ATOM      9  O   UNL     1      20.763  42.825  47.433  0.00  0.00    +0.000 OA
BRANCH   9  12
ATOM     10 BR   UNL     1      19.956  39.937  46.689  0.00  0.00    +0.000 Br
ATOM     11  C   UNL     1      21.636  40.598  47.274  0.00  0.00    +0.000 A 
ATOM     12  C   UNL     1      21.839  41.958  47.538  0.00  0.00    +0.000 A 
ATOM     13  C   UNL     1      22.682  39.682  47.442  0.00  0.00    +0.000 A 
ATOM     14  C   UNL     1      23.130  42.395  47.877  0.00  0.00    +0.000 A 
ATOM     15  C   UNL     1      23.940  40.121  47.855  0.00  0.00    +0.000 A 
ATOM     16  C   UNL     1      24.168  41.478  48.060  0.00  0.00    +0.000 A 
ENDBRANCH   9  12
ENDBRANCH   3   9
ENDBRANCH   1   8
BRANCH   2  17
ATOM     17  N   UNL     1      16.895  40.499  43.237  0.00  0.00    +0.000 N 
ATOM     18  C   UNL     1      17.847  39.573  43.612  0.00  0.00    +0.000 C 
ATOM     19  O   UNL     1      18.964  39.502  43.099  0.00  0.00    +0.000 OA
ATOM     20  H   UNL     1      15.987  40.437  43.615  0.00  0.00    +0.000 HD
BRANCH  18  21
ATOM     21  C   UNL     1      17.434  38.521  44.578  0.00  0.00    +0.000 A 
ATOM     22  C   UNL     1      16.631  38.907  45.660  0.00  0.00    +0.000 A 
ATOM     23  C   UNL     1      17.758  37.173  44.398  0.00  0.00    +0.000 A 
ATOM     24  C   UNL     1      16.138  37.953  46.548  0.00  0.00    +0.000 A 
ATOM     25  C   UNL     1      17.257  36.218  45.289  0.00  0.00    +0.000 A 
ATOM     26  C   UNL     1      16.444  36.608  46.356  0.00  0.00    +0.000 A 
ENDBRANCH  18  21
ENDBRANCH   2  17
BRANCH   2  27
ATOM     27  C   UNL     1      16.470  41.535  41.025  0.00  0.00    +0.000 C 
ATOM     28  O   UNL     1      16.950  41.891  39.964  0.00  0.00    +0.000 OA
ATOM     29  OXT UNL     1      15.192  41.112  41.162  0.00  0.00    +0.000 OA
ENDBRANCH   2  27
TORSDOF 6
ENDMDL
