MODEL 1
REMARK VINA RESULT:      -7.5      0.000      0.000
REMARK  Name = 323637
REMARK  8 active torsions:
REMARK  status: ('A' for Active; 'I' for Inactive)
REMARK    1  A    between atoms: C_3  and  O_5
REMARK    2  A    between atoms: O_5  and  C_8
REMARK    3  A    between atoms: C_14  and  C_15
REMARK    4  A    between atoms: CA_16  and  N_17
REMARK    5  A    between atoms: CA_16  and  C_18
REMARK    6  A    between atoms: C_19  and  C_23
REMARK    7  A    between atoms: C_23  and  C_24
REMARK    8  A    between atoms: C_24  and  C_25
REMARK                            x       y       z     vdW  Elec       q    Type
REMARK                         _______ _______ _______ _____ _____    ______ ____
ROOT
ATOM      1  C   UNL     1      22.596  42.275  48.373  0.00  0.00    +0.000 C 
ATOM      2  CA  UNL     1      23.658  41.664  47.818  0.00  0.00    +0.000 C 
ENDROOT
BRANCH   1   8
ATOM      3  C   UNL     1      18.559  42.176  47.126  0.00  0.00    +0.000 A 
ATOM      4  C   UNL     1      18.883  42.895  48.278  0.00  0.00    +0.000 A 
ATOM      5  C   UNL     1      19.478  41.283  46.578  0.00  0.00    +0.000 A 
ATOM      6  C   UNL     1      20.203  42.885  48.747  0.00  0.00    +0.000 A 
ATOM      7  C   UNL     1      20.786  41.264  47.045  0.00  0.00    +0.000 A 
ATOM      8  C   UNL     1      21.169  42.108  48.091  0.00  0.00    +0.000 A 
BRANCH   3   9
ATOM      9  O   UNL     1      17.372  42.263  46.454  0.00  0.00    +0.000 OA
BRANCH   9  12
ATOM     10  I   UNL     1      16.325  38.783  46.518  0.00  0.00    +0.000 I 
ATOM     11  C   UNL     1      16.832  40.225  45.060  0.00  0.00    +0.000 A 
ATOM     12  C   UNL     1      17.139  41.577  45.283  0.00  0.00    +0.000 A 
ATOM     13  C   UNL     1      16.684  39.755  43.741  0.00  0.00    +0.000 A 
ATOM     14  C   UNL     1      17.122  42.451  44.180  0.00  0.00    +0.000 A 
ATOM     15  C   UNL     1      16.712  40.634  42.659  0.00  0.00    +0.000 A 
ATOM     16  C   UNL     1      16.891  41.991  42.884  0.00  0.00    +0.000 A 
ENDBRANCH   9  12
ENDBRANCH   3   9
ENDBRANCH   1   8
BRANCH   2  17
ATOM     17  N   UNL     1      23.663  40.777  46.752  0.00  0.00    +0.000 N 
ATOM     18  C   UNL     1      23.641  39.396  46.861  0.00  0.00    +0.000 C 
ATOM     19  O   UNL     1      23.514  38.777  47.911  0.00  0.00    +0.000 OA
ATOM     20  H   UNL     1      23.683  41.159  45.846  0.00  0.00    +0.000 HD
BRANCH  18  21
ATOM     21  C   UNL     1      23.669  38.670  45.533  0.00  0.00    +0.000 C 
BRANCH  21  22
ATOM     22  C   UNL     1      23.769  39.710  44.415  0.00  0.00    +0.000 C 
BRANCH  22  23
ATOM     23  C   UNL     1      22.494  39.855  43.596  0.00  0.00    +0.000 C 
ATOM     24  C   UNL     1      21.915  41.267  43.683  0.00  0.00    +0.000 C 
ATOM     25  C   UNL     1      21.328  39.005  44.095  0.00  0.00    +0.000 C 
ATOM     26  C   UNL     1      20.465  41.113  43.235  0.00  0.00    +0.000 C 
ATOM     27  C   UNL     1      20.122  39.633  43.408  0.00  0.00    +0.000 C 
ENDBRANCH  22  23
ENDBRANCH  21  22
ENDBRANCH  18  21
ENDBRANCH   2  17
BRANCH   2  28
ATOM     28  C   UNL     1      24.974  41.980  48.480  0.00  0.00    +0.000 C 
ATOM     29  O   UNL     1      26.072  41.658  48.069  0.00  0.00    +0.000 OA
ATOM     30  OXT UNL     1      24.799  42.682  49.624  0.00  0.00    +0.000 OA
ENDBRANCH   2  28
TORSDOF 8
ENDMDL
MODEL 2
REMARK VINA RESULT:      -7.5      3.059      7.389
REMARK  Name = 323637
REMARK  8 active torsions:
REMARK  status: ('A' for Active; 'I' for Inactive)
REMARK    1  A    between atoms: C_3  and  O_5
REMARK    2  A    between atoms: O_5  and  C_8
REMARK    3  A    between atoms: C_14  and  C_15
REMARK    4  A    between atoms: CA_16  and  N_17
REMARK    5  A    between atoms: CA_16  and  C_18
REMARK    6  A    between atoms: C_19  and  C_23
REMARK    7  A    between atoms: C_23  and  C_24
REMARK    8  A    between atoms: C_24  and  C_25
REMARK                            x       y       z     vdW  Elec       q    Type
REMARK                         _______ _______ _______ _____ _____    ______ ____
ROOT
ATOM      1  C   UNL     1      19.592  42.161  43.560  0.00  0.00    +0.000 C 
ATOM      2  CA  UNL     1      18.313  41.750  43.498  0.00  0.00    +0.000 C 
ENDROOT
BRANCH   1   8
ATOM      3  C   UNL     1      21.975  41.525  46.992  0.00  0.00    +0.000 A 
ATOM      4  C   UNL     1      21.606  42.833  46.670  0.00  0.00    +0.000 A 
ATOM      5  C   UNL     1      21.816  40.504  46.057  0.00  0.00    +0.000 A 
ATOM      6  C   UNL     1      20.873  43.073  45.500  0.00  0.00    +0.000 A 
ATOM      7  C   UNL     1      21.097  40.740  44.892  0.00  0.00    +0.000 A 
ATOM      8  C   UNL     1      20.572  42.009  44.637  0.00  0.00    +0.000 A 
BRANCH   3   9
ATOM      9  O   UNL     1      22.506  41.131  48.188  0.00  0.00    +0.000 OA
BRANCH   9  12
ATOM     10  I   UNL     1      25.612  40.598  46.378  0.00  0.00    +0.000 I 
ATOM     11  C   UNL     1      25.011  41.474  48.203  0.00  0.00    +0.000 A 
ATOM     12  C   UNL     1      23.695  41.635  48.666  0.00  0.00    +0.000 A 
ATOM     13  C   UNL     1      26.073  42.068  48.910  0.00  0.00    +0.000 A 
ATOM     14  C   UNL     1      23.472  42.528  49.731  0.00  0.00    +0.000 A 
ATOM     15  C   UNL     1      25.831  42.916  49.989  0.00  0.00    +0.000 A 
ATOM     16  C   UNL     1      24.524  43.179  50.374  0.00  0.00    +0.000 A 
ENDBRANCH   9  12
ENDBRANCH   3   9
ENDBRANCH   1   8
BRANCH   2  17
ATOM     17  N   UNL     1      17.566  41.154  44.503  0.00  0.00    +0.000 N 
ATOM     18  C   UNL     1      17.049  41.809  45.610  0.00  0.00    +0.000 C 
ATOM     19  O   UNL     1      17.097  43.019  45.794  0.00  0.00    +0.000 OA
ATOM     20  H   UNL     1      17.389  40.190  44.425  0.00  0.00    +0.000 HD
BRANCH  18  21
ATOM     21  C   UNL     1      16.285  40.911  46.560  0.00  0.00    +0.000 C 
BRANCH  21  22
ATOM     22  C   UNL     1      17.283  39.983  47.255  0.00  0.00    +0.000 C 
BRANCH  22  23
ATOM     23  C   UNL     1      17.320  38.576  46.675  0.00  0.00    +0.000 C 
ATOM     24  C   UNL     1      18.190  38.496  45.421  0.00  0.00    +0.000 C 
ATOM     25  C   UNL     1      15.974  38.076  46.156  0.00  0.00    +0.000 C 
ATOM     26  C   UNL     1      17.747  37.211  44.730  0.00  0.00    +0.000 C 
ATOM     27  C   UNL     1      16.358  36.889  45.282  0.00  0.00    +0.000 C 
ENDBRANCH  22  23
ENDBRANCH  21  22
ENDBRANCH  18  21
ENDBRANCH   2  17
BRANCH   2  28
ATOM     28  C   UNL     1      17.659  41.948  42.156  0.00  0.00    +0.000 C 
ATOM     29  O   UNL     1      16.764  41.267  41.693  0.00  0.00    +0.000 OA
ATOM     30  OXT UNL     1      18.195  42.999  41.492  0.00  0.00    +0.000 OA
ENDBRANCH   2  28
TORSDOF 8
ENDMDL
MODEL 3
REMARK VINA RESULT:      -7.4      2.984      7.386
REMARK  Name = 323637
REMARK  8 active torsions:
REMARK  status: ('A' for Active; 'I' for Inactive)
REMARK    1  A    between atoms: C_3  and  O_5
REMARK    2  A    between atoms: O_5  and  C_8
REMARK    3  A    between atoms: C_14  and  C_15
REMARK    4  A    between atoms: CA_16  and  N_17
REMARK    5  A    between atoms: CA_16  and  C_18
REMARK    6  A    between atoms: C_19  and  C_23
REMARK    7  A    between atoms: C_23  and  C_24
REMARK    8  A    between atoms: C_24  and  C_25
REMARK                            x       y       z     vdW  Elec       q    Type
REMARK                         _______ _______ _______ _____ _____    ______ ____
ROOT
ATOM      1  C   UNL     1      19.339  41.736  43.484  0.00  0.00    +0.000 C 
ATOM      2  CA  UNL     1      18.058  41.325  43.480  0.00  0.00    +0.000 C 
ENDROOT
BRANCH   1   8
ATOM      3  C   UNL     1      21.830  41.324  46.873  0.00  0.00    +0.000 A 
ATOM      4  C   UNL     1      21.646  42.598  46.333  0.00  0.00    +0.000 A 
ATOM      5  C   UNL     1      21.450  40.196  46.149  0.00  0.00    +0.000 A 
ATOM      6  C   UNL     1      20.879  42.748  45.170  0.00  0.00    +0.000 A 
ATOM      7  C   UNL     1      20.696  40.340  44.990  0.00  0.00    +0.000 A 
ATOM      8  C   UNL     1      20.357  41.615  44.529  0.00  0.00    +0.000 A 
BRANCH   3   9
ATOM      9  O   UNL     1      22.376  41.061  48.098  0.00  0.00    +0.000 OA
BRANCH   9  12
ATOM     10  I   UNL     1      25.395  40.565  46.137  0.00  0.00    +0.000 I 
ATOM     11  C   UNL     1      24.868  41.468  47.972  0.00  0.00    +0.000 A 
ATOM     12  C   UNL     1      23.574  41.607  48.501  0.00  0.00    +0.000 A 
ATOM     13  C   UNL     1      25.950  42.105  48.607  0.00  0.00    +0.000 A 
ATOM     14  C   UNL     1      23.385  42.518  49.556  0.00  0.00    +0.000 A 
ATOM     15  C   UNL     1      25.743  42.973  49.678  0.00  0.00    +0.000 A 
ATOM     16  C   UNL     1      24.452  43.211  50.127  0.00  0.00    +0.000 A 
ENDBRANCH   9  12
ENDBRANCH   3   9
ENDBRANCH   1   8
BRANCH   2  17
ATOM     17  N   UNL     1      17.348  40.760  44.528  0.00  0.00    +0.000 N 
ATOM     18  C   UNL     1      17.248  39.402  44.785  0.00  0.00    +0.000 C 
ATOM     19  O   UNL     1      17.856  38.527  44.180  0.00  0.00    +0.000 OA
ATOM     20  H   UNL     1      16.878  41.372  45.139  0.00  0.00    +0.000 HD
BRANCH  18  21
ATOM     21  C   UNL     1      16.394  39.061  45.989  0.00  0.00    +0.000 C 
BRANCH  21  22
ATOM     22  C   UNL     1      16.973  39.777  47.211  0.00  0.00    +0.000 C 
BRANCH  22  23
ATOM     23  C   UNL     1      17.543  41.154  46.901  0.00  0.00    +0.000 C 
ATOM     24  C   UNL     1      18.508  41.632  47.986  0.00  0.00    +0.000 C 
ATOM     25  C   UNL     1      16.506  42.275  46.887  0.00  0.00    +0.000 C 
ATOM     26  C   UNL     1      18.599  43.141  47.778  0.00  0.00    +0.000 C 
ATOM     27  C   UNL     1      17.355  43.536  46.982  0.00  0.00    +0.000 C 
ENDBRANCH  22  23
ENDBRANCH  21  22
ENDBRANCH  18  21
ENDBRANCH   2  17
BRANCH   2  28
ATOM     28  C   UNL     1      17.357  41.485  42.157  0.00  0.00    +0.000 C 
ATOM     29  O   UNL     1      17.732  42.182  41.233  0.00  0.00    +0.000 OA
ATOM     30  OXT UNL     1      16.221  40.751  42.104  0.00  0.00    +0.000 OA
ENDBRANCH   2  28
TORSDOF 8
ENDMDL
MODEL 4
REMARK VINA RESULT:      -7.1      1.713      4.200
REMARK  Name = 323637
REMARK  8 active torsions:
REMARK  status: ('A' for Active; 'I' for Inactive)
REMARK    1  A    between atoms: C_3  and  O_5
REMARK    2  A    between atoms: O_5  and  C_8
REMARK    3  A    between atoms: C_14  and  C_15
REMARK    4  A    between atoms: CA_16  and  N_17
REMARK    5  A    between atoms: CA_16  and  C_18
REMARK    6  A    between atoms: C_19  and  C_23
REMARK    7  A    between atoms: C_23  and  C_24
REMARK    8  A    between atoms: C_24  and  C_25
REMARK                            x       y       z     vdW  Elec       q    Type
REMARK                         _______ _______ _______ _____ _____    ______ ____
ROOT
ATOM      1  C   UNL     1      25.360  40.541  46.925  0.00  0.00    +0.000 C 
ATOM      2  CA  UNL     1      25.097  41.494  47.837  0.00  0.00    +0.000 C 
ENDROOT
BRANCH   1   8
ATOM      3  C   UNL     1      22.472  39.266  44.114  0.00  0.00    +0.000 A 
ATOM      4  C   UNL     1      22.993  38.327  45.006  0.00  0.00    +0.000 A 
ATOM      5  C   UNL     1      23.094  40.503  43.959  0.00  0.00    +0.000 A 
ATOM      6  C   UNL     1      24.001  38.713  45.901  0.00  0.00    +0.000 A 
ATOM      7  C   UNL     1      24.099  40.887  44.839  0.00  0.00    +0.000 A 
ATOM      8  C   UNL     1      24.515  40.017  45.850  0.00  0.00    +0.000 A 
BRANCH   3   9
ATOM      9  O   UNL     1      21.362  39.081  43.338  0.00  0.00    +0.000 OA
BRANCH   9  12
ATOM     10  I   UNL     1      18.052  38.010  44.389  0.00  0.00    +0.000 I 
ATOM     11  C   UNL     1      18.942  39.758  43.606  0.00  0.00    +0.000 A 
ATOM     12  C   UNL     1      20.306  39.963  43.344  0.00  0.00    +0.000 A 
ATOM     13  C   UNL     1      18.044  40.837  43.499  0.00  0.00    +0.000 A 
ATOM     14  C   UNL     1      20.750  41.284  43.145  0.00  0.00    +0.000 A 
ATOM     15  C   UNL     1      18.503  42.131  43.260  0.00  0.00    +0.000 A 
ATOM     16  C   UNL     1      19.865  42.360  43.123  0.00  0.00    +0.000 A 
ENDBRANCH   9  12
ENDBRANCH   3   9
ENDBRANCH   1   8
BRANCH   2  17
ATOM     17  N   UNL     1      23.897  42.157  48.046  0.00  0.00    +0.000 N 
ATOM     18  C   UNL     1      22.650  41.556  48.102  0.00  0.00    +0.000 C 
ATOM     19  O   UNL     1      22.454  40.347  48.074  0.00  0.00    +0.000 OA
ATOM     20  H   UNL     1      23.935  43.133  48.164  0.00  0.00    +0.000 HD
BRANCH  18  21
ATOM     21  C   UNL     1      21.506  42.522  48.326  0.00  0.00    +0.000 C 
BRANCH  21  22
ATOM     22  C   UNL     1      20.638  42.543  47.066  0.00  0.00    +0.000 C 
BRANCH  22  23
ATOM     23  C   UNL     1      19.143  42.484  47.351  0.00  0.00    +0.000 C 
ATOM     24  C   UNL     1      18.544  41.125  46.987  0.00  0.00    +0.000 C 
ATOM     25  C   UNL     1      18.305  43.435  46.501  0.00  0.00    +0.000 C 
ATOM     26  C   UNL     1      17.045  41.386  46.877  0.00  0.00    +0.000 C 
ATOM     27  C   UNL     1      16.891  42.893  46.665  0.00  0.00    +0.000 C 
ENDBRANCH  22  23
ENDBRANCH  21  22
ENDBRANCH  18  21
ENDBRANCH   2  17
BRANCH   2  28
ATOM     28  C   UNL     1      26.276  41.880  48.691  0.00  0.00    +0.000 C 
ATOM     29  O   UNL     1      27.382  41.378  48.645  0.00  0.00    +0.000 OA
ATOM     30  OXT UNL     1      25.961  42.876  49.551  0.00  0.00    +0.000 OA
ENDBRANCH   2  28
TORSDOF 8
ENDMDL
MODEL 5
REMARK VINA RESULT:      -6.5      1.941      4.278
REMARK  Name = 323637
REMARK  8 active torsions:
REMARK  status: ('A' for Active; 'I' for Inactive)
REMARK    1  A    between atoms: C_3  and  O_5
REMARK    2  A    between atoms: O_5  and  C_8
REMARK    3  A    between atoms: C_14  and  C_15
REMARK    4  A    between atoms: CA_16  and  N_17
REMARK    5  A    between atoms: CA_16  and  C_18
REMARK    6  A    between atoms: C_19  and  C_23
REMARK    7  A    between atoms: C_23  and  C_24
REMARK    8  A    between atoms: C_24  and  C_25
REMARK                            x       y       z     vdW  Elec       q    Type
REMARK                         _______ _______ _______ _____ _____    ______ ____
ROOT
ATOM      1  C   UNL     1      24.378  40.541  45.984  0.00  0.00    +0.000 C 
ATOM      2  CA  UNL     1      24.271  41.382  47.029  0.00  0.00    +0.000 C 
ENDROOT
BRANCH   1   8
ATOM      3  C   UNL     1      21.108  39.485  43.524  0.00  0.00    +0.000 A 
ATOM      4  C   UNL     1      21.988  38.480  43.930  0.00  0.00    +0.000 A 
ATOM      5  C   UNL     1      21.459  40.825  43.676  0.00  0.00    +0.000 A 
ATOM      6  C   UNL     1      23.116  38.818  44.690  0.00  0.00    +0.000 A 
ATOM      7  C   UNL     1      22.581  41.165  44.421  0.00  0.00    +0.000 A 
ATOM      8  C   UNL     1      23.380  40.164  44.981  0.00  0.00    +0.000 A 
BRANCH   3   9
ATOM      9  O   UNL     1      19.880  39.274  42.961  0.00  0.00    +0.000 OA
BRANCH   9  12
ATOM     10  I   UNL     1      17.283  41.816  43.000  0.00  0.00    +0.000 I 
ATOM     11  C   UNL     1      17.672  39.980  43.968  0.00  0.00    +0.000 A 
ATOM     12  C   UNL     1      18.743  39.107  43.719  0.00  0.00    +0.000 A 
ATOM     13  C   UNL     1      16.636  39.578  44.832  0.00  0.00    +0.000 A 
ATOM     14  C   UNL     1      18.656  37.793  44.215  0.00  0.00    +0.000 A 
ATOM     15  C   UNL     1      16.591  38.283  45.346  0.00  0.00    +0.000 A 
ATOM     16  C   UNL     1      17.583  37.376  45.003  0.00  0.00    +0.000 A 
ENDBRANCH   9  12
ENDBRANCH   3   9
ENDBRANCH   1   8
BRANCH   2  17
ATOM     17  N   UNL     1      23.132  42.035  47.476  0.00  0.00    +0.000 N 
ATOM     18  C   UNL     1      21.902  41.436  47.699  0.00  0.00    +0.000 C 
ATOM     19  O   UNL     1      21.686  40.232  47.626  0.00  0.00    +0.000 OA
ATOM     20  H   UNL     1      23.203  43.001  47.650  0.00  0.00    +0.000 HD
BRANCH  18  21
ATOM     21  C   UNL     1      20.826  42.390  48.171  0.00  0.00    +0.000 C 
BRANCH  21  22
ATOM     22  C   UNL     1      20.382  43.244  46.982  0.00  0.00    +0.000 C 
BRANCH  22  23
ATOM     23  C   UNL     1      18.943  42.997  46.552  0.00  0.00    +0.000 C 
ATOM     24  C   UNL     1      18.001  44.097  47.042  0.00  0.00    +0.000 C 
ATOM     25  C   UNL     1      18.311  41.748  47.163  0.00  0.00    +0.000 C 
ATOM     26  C   UNL     1      16.610  43.476  46.954  0.00  0.00    +0.000 C 
ATOM     27  C   UNL     1      16.822  41.962  46.930  0.00  0.00    +0.000 C 
ENDBRANCH  22  23
ENDBRANCH  21  22
ENDBRANCH  18  21
ENDBRANCH   2  17
BRANCH   2  28
ATOM     28  C   UNL     1      25.565  41.642  47.754  0.00  0.00    +0.000 C 
ATOM     29  O   UNL     1      26.625  41.088  47.537  0.00  0.00    +0.000 OA
ATOM     30  OXT UNL     1      25.417  42.587  48.711  0.00  0.00    +0.000 OA
ENDBRANCH   2  28
TORSDOF 8
ENDMDL
MODEL 6
REMARK VINA RESULT:      -6.3      1.803      2.426
REMARK  Name = 323637
REMARK  8 active torsions:
REMARK  status: ('A' for Active; 'I' for Inactive)
REMARK    1  A    between atoms: C_3  and  O_5
REMARK    2  A    between atoms: O_5  and  C_8
REMARK    3  A    between atoms: C_14  and  C_15
REMARK    4  A    between atoms: CA_16  and  N_17
REMARK    5  A    between atoms: CA_16  and  C_18
REMARK    6  A    between atoms: C_19  and  C_23
REMARK    7  A    between atoms: C_23  and  C_24
REMARK    8  A    between atoms: C_24  and  C_25
REMARK                            x       y       z     vdW  Elec       q    Type
REMARK                         _______ _______ _______ _____ _____    ______ ____
ROOT
ATOM      1  C   UNL     1      23.444  42.567  48.005  0.00  0.00    +0.000 C 
ATOM      2  CA  UNL     1      24.608  41.898  47.921  0.00  0.00    +0.000 C 
ENDROOT
BRANCH   1   8
ATOM      3  C   UNL     1      20.036  41.396  45.797  0.00  0.00    +0.000 A 
ATOM      4  C   UNL     1      20.685  42.580  45.442  0.00  0.00    +0.000 A 
ATOM      5  C   UNL     1      20.321  40.781  47.014  0.00  0.00    +0.000 A 
ATOM      6  C   UNL     1      21.776  43.022  46.203  0.00  0.00    +0.000 A 
ATOM      7  C   UNL     1      21.397  41.220  47.776  0.00  0.00    +0.000 A 
ATOM      8  C   UNL     1      22.164  42.305  47.344  0.00  0.00    +0.000 A 
BRANCH   3   9
ATOM      9  O   UNL     1      19.102  40.753  45.034  0.00  0.00    +0.000 OA
BRANCH   9  12
ATOM     10  I   UNL     1      16.768  42.766  46.960  0.00  0.00    +0.000 I 
ATOM     11  C   UNL     1      16.994  40.734  46.429  0.00  0.00    +0.000 A 
ATOM     12  C   UNL     1      17.970  40.190  45.578  0.00  0.00    +0.000 A 
ATOM     13  C   UNL     1      15.942  39.920  46.888  0.00  0.00    +0.000 A 
ATOM     14  C   UNL     1      17.764  38.890  45.081  0.00  0.00    +0.000 A 
ATOM     15  C   UNL     1      15.781  38.620  46.413  0.00  0.00    +0.000 A 
ATOM     16  C   UNL     1      16.672  38.118  45.476  0.00  0.00    +0.000 A 
ENDBRANCH   9  12
ENDBRANCH   3   9
ENDBRANCH   1   8
BRANCH   2  17
ATOM     17  N   UNL     1      24.911  40.828  47.092  0.00  0.00    +0.000 N 
ATOM     18  C   UNL     1      24.493  39.522  47.288  0.00  0.00    +0.000 C 
ATOM     19  O   UNL     1      23.719  39.157  48.165  0.00  0.00    +0.000 OA
ATOM     20  H   UNL     1      25.466  41.012  46.300  0.00  0.00    +0.000 HD
BRANCH  18  21
ATOM     21  C   UNL     1      24.983  38.550  46.235  0.00  0.00    +0.000 C 
BRANCH  21  22
ATOM     22  C   UNL     1      23.777  38.056  45.434  0.00  0.00    +0.000 C 
BRANCH  22  23
ATOM     23  C   UNL     1      22.896  39.177  44.899  0.00  0.00    +0.000 C 
ATOM     24  C   UNL     1      21.806  38.652  43.964  0.00  0.00    +0.000 C 
ATOM     25  C   UNL     1      23.624  40.175  44.004  0.00  0.00    +0.000 C 
ATOM     26  C   UNL     1      21.353  39.878  43.179  0.00  0.00    +0.000 C 
ATOM     27  C   UNL     1      22.488  40.898  43.292  0.00  0.00    +0.000 C 
ENDBRANCH  22  23
ENDBRANCH  21  22
ENDBRANCH  18  21
ENDBRANCH   2  17
BRANCH   2  28
ATOM     28  C   UNL     1      25.671  42.375  48.875  0.00  0.00    +0.000 C 
ATOM     29  O   UNL     1      25.512  43.183  49.770  0.00  0.00    +0.000 OA
ATOM     30  OXT UNL     1      26.866  41.793  48.620  0.00  0.00    +0.000 OA
ENDBRANCH   2  28
TORSDOF 8
ENDMDL
MODEL 7
REMARK VINA RESULT:      -6.0      2.184      4.847
REMARK  Name = 323637
REMARK  8 active torsions:
REMARK  status: ('A' for Active; 'I' for Inactive)
REMARK    1  A    between atoms: C_3  and  O_5
REMARK    2  A    between atoms: O_5  and  C_8
REMARK    3  A    between atoms: C_14  and  C_15
REMARK    4  A    between atoms: CA_16  and  N_17
REMARK    5  A    between atoms: CA_16  and  C_18
REMARK    6  A    between atoms: C_19  and  C_23
REMARK    7  A    between atoms: C_23  and  C_24
REMARK    8  A    between atoms: C_24  and  C_25
REMARK                            x       y       z     vdW  Elec       q    Type
REMARK                         _______ _______ _______ _____ _____    ______ ____
ROOT
ATOM      1  C   UNL     1      23.152  40.583  43.500  0.00  0.00    +0.000 C 
ATOM      2  CA  UNL     1      23.873  40.674  44.632  0.00  0.00    +0.000 C 
ENDROOT
BRANCH   1   8
ATOM      3  C   UNL     1      18.930  40.387  43.552  0.00  0.00    +0.000 A 
ATOM      4  C   UNL     1      19.652  39.192  43.533  0.00  0.00    +0.000 A 
ATOM      5  C   UNL     1      19.567  41.592  43.264  0.00  0.00    +0.000 A 
ATOM      6  C   UNL     1      21.050  39.234  43.448  0.00  0.00    +0.000 A 
ATOM      7  C   UNL     1      20.952  41.638  43.171  0.00  0.00    +0.000 A 
ATOM      8  C   UNL     1      21.703  40.469  43.321  0.00  0.00    +0.000 A 
BRANCH   3   9
ATOM      9  O   UNL     1      17.597  40.495  43.833  0.00  0.00    +0.000 OA
BRANCH   9  12
ATOM     10  I   UNL     1      17.013  42.929  46.468  0.00  0.00    +0.000 I 
ATOM     11  C   UNL     1      16.853  40.837  46.224  0.00  0.00    +0.000 A 
ATOM     12  C   UNL     1      17.068  40.108  45.043  0.00  0.00    +0.000 A 
ATOM     13  C   UNL     1      16.331  40.185  47.357  0.00  0.00    +0.000 A 
ATOM     14  C   UNL     1      16.595  38.784  44.988  0.00  0.00    +0.000 A 
ATOM     15  C   UNL     1      15.907  38.859  47.291  0.00  0.00    +0.000 A 
ATOM     16  C   UNL     1      16.002  38.169  46.090  0.00  0.00    +0.000 A 
ENDBRANCH   9  12
ENDBRANCH   3   9
ENDBRANCH   1   8
BRANCH   2  17
ATOM     17  N   UNL     1      23.414  40.581  45.937  0.00  0.00    +0.000 N 
ATOM     18  C   UNL     1      23.428  39.431  46.710  0.00  0.00    +0.000 C 
ATOM     19  O   UNL     1      23.940  38.369  46.377  0.00  0.00    +0.000 OA
ATOM     20  H   UNL     1      23.050  41.398  46.348  0.00  0.00    +0.000 HD
BRANCH  18  21
ATOM     21  C   UNL     1      22.850  39.611  48.098  0.00  0.00    +0.000 C 
BRANCH  21  22
ATOM     22  C   UNL     1      22.833  41.106  48.425  0.00  0.00    +0.000 C 
BRANCH  22  23
ATOM     23  C   UNL     1      23.986  41.552  49.313  0.00  0.00    +0.000 C 
ATOM     24  C   UNL     1      23.592  42.715  50.223  0.00  0.00    +0.000 C 
ATOM     25  C   UNL     1      25.174  42.138  48.552  0.00  0.00    +0.000 C 
ATOM     26  C   UNL     1      24.919  43.323  50.663  0.00  0.00    +0.000 C 
ATOM     27  C   UNL     1      25.957  42.865  49.637  0.00  0.00    +0.000 C 
ENDBRANCH  22  23
ENDBRANCH  21  22
ENDBRANCH  18  21
ENDBRANCH   2  17
BRANCH   2  28
ATOM     28  C   UNL     1      25.340  40.937  44.416  0.00  0.00    +0.000 C 
ATOM     29  O   UNL     1      25.847  41.327  43.382  0.00  0.00    +0.000 OA
ATOM     30  OXT UNL     1      26.061  40.680  45.532  0.00  0.00    +0.000 OA
ENDBRANCH   2  28
TORSDOF 8
ENDMDL
MODEL 8
REMARK VINA RESULT:      -6.0      2.457      7.460
REMARK  Name = 323637
REMARK  8 active torsions:
REMARK  status: ('A' for Active; 'I' for Inactive)
REMARK    1  A    between atoms: C_3  and  O_5
REMARK    2  A    between atoms: O_5  and  C_8
REMARK    3  A    between atoms: C_14  and  C_15
REMARK    4  A    between atoms: CA_16  and  N_17
REMARK    5  A    between atoms: CA_16  and  C_18
REMARK    6  A    between atoms: C_19  and  C_23
REMARK    7  A    between atoms: C_23  and  C_24
REMARK    8  A    between atoms: C_24  and  C_25
REMARK                            x       y       z     vdW  Elec       q    Type
REMARK                         _______ _______ _______ _____ _____    ______ ____
ROOT
ATOM      1  C   UNL     1      21.159  39.244  43.837  0.00  0.00    +0.000 C 
ATOM      2  CA  UNL     1      19.997  39.818  44.196  0.00  0.00    +0.000 C 
ENDROOT
BRANCH   1   8
ATOM      3  C   UNL     1      24.801  40.121  45.794  0.00  0.00    +0.000 A 
ATOM      4  C   UNL     1      24.393  40.947  44.745  0.00  0.00    +0.000 A 
ATOM      5  C   UNL     1      24.186  38.887  45.992  0.00  0.00    +0.000 A 
ATOM      6  C   UNL     1      23.224  40.635  44.038  0.00  0.00    +0.000 A 
ATOM      7  C   UNL     1      23.030  38.570  45.288  0.00  0.00    +0.000 A 
ATOM      8  C   UNL     1      22.512  39.468  44.351  0.00  0.00    +0.000 A 
BRANCH   3   9
ATOM      9  O   UNL     1      25.795  40.416  46.684  0.00  0.00    +0.000 OA
BRANCH   9  12
ATOM     10  I   UNL     1      22.437  41.179  47.842  0.00  0.00    +0.000 I 
ATOM     11  C   UNL     1      24.410  41.764  48.313  0.00  0.00    +0.000 A 
ATOM     12  C   UNL     1      25.595  41.251  47.759  0.00  0.00    +0.000 A 
ATOM     13  C   UNL     1      24.481  42.652  49.403  0.00  0.00    +0.000 A 
ATOM     14  C   UNL     1      26.806  41.517  48.425  0.00  0.00    +0.000 A 
ATOM     15  C   UNL     1      25.698  42.933  50.022  0.00  0.00    +0.000 A 
ATOM     16  C   UNL     1      26.858  42.331  49.556  0.00  0.00    +0.000 A 
ENDBRANCH   9  12
ENDBRANCH   3   9
ENDBRANCH   1   8
BRANCH   2  17
ATOM     17  N   UNL     1      19.809  40.856  45.096  0.00  0.00    +0.000 N 
ATOM     18  C   UNL     1      19.743  42.199  44.763  0.00  0.00    +0.000 C 
ATOM     19  O   UNL     1      19.743  42.639  43.620  0.00  0.00    +0.000 OA
ATOM     20  H   UNL     1      19.713  40.620  46.046  0.00  0.00    +0.000 HD
BRANCH  18  21
ATOM     21  C   UNL     1      19.546  43.122  45.948  0.00  0.00    +0.000 C 
BRANCH  21  22
ATOM     22  C   UNL     1      18.048  43.383  46.113  0.00  0.00    +0.000 C 
BRANCH  22  23
ATOM     23  C   UNL     1      17.280  42.205  46.694  0.00  0.00    +0.000 C 
ATOM     24  C   UNL     1      18.206  41.201  47.382  0.00  0.00    +0.000 C 
ATOM     25  C   UNL     1      16.589  41.330  45.651  0.00  0.00    +0.000 C 
ATOM     26  C   UNL     1      17.383  39.920  47.469  0.00  0.00    +0.000 C 
ATOM     27  C   UNL     1      16.279  40.052  46.419  0.00  0.00    +0.000 C 
ENDBRANCH  22  23
ENDBRANCH  21  22
ENDBRANCH  18  21
ENDBRANCH   2  17
BRANCH   2  28
ATOM     28  C   UNL     1      18.779  39.214  43.548  0.00  0.00    +0.000 C 
ATOM     29  O   UNL     1      17.988  39.802  42.836  0.00  0.00    +0.000 OA
ATOM     30  OXT UNL     1      18.648  37.903  43.859  0.00  0.00    +0.000 OA
ENDBRANCH   2  28
TORSDOF 8
ENDMDL
MODEL 9
REMARK VINA RESULT:      -5.9      2.913      6.910
REMARK  Name = 323637
REMARK  8 active torsions:
REMARK  status: ('A' for Active; 'I' for Inactive)
REMARK    1  A    between atoms: C_3  and  O_5
REMARK    2  A    between atoms: O_5  and  C_8
REMARK    3  A    between atoms: C_14  and  C_15
REMARK    4  A    between atoms: CA_16  and  N_17
REMARK    5  A    between atoms: CA_16  and  C_18
REMARK    6  A    between atoms: C_19  and  C_23
REMARK    7  A    between atoms: C_23  and  C_24
REMARK    8  A    between atoms: C_24  and  C_25
REMARK                            x       y       z     vdW  Elec       q    Type
REMARK                         _______ _______ _______ _____ _____    ______ ____
ROOT
ATOM      1  C   UNL     1      17.974  39.796  47.007  0.00  0.00    +0.000 C 
ATOM      2  CA  UNL     1      17.059  39.551  46.052  0.00  0.00    +0.000 C 
ENDROOT
BRANCH   1   8
ATOM      3  C   UNL     1      21.480  42.118  47.433  0.00  0.00    +0.000 A 
ATOM      4  C   UNL     1      20.280  42.771  47.143  0.00  0.00    +0.000 A 
ATOM      5  C   UNL     1      21.575  40.735  47.292  0.00  0.00    +0.000 A 
ATOM      6  C   UNL     1      19.119  42.015  46.931  0.00  0.00    +0.000 A 
ATOM      7  C   UNL     1      20.428  39.982  47.074  0.00  0.00    +0.000 A 
ATOM      8  C   UNL     1      19.187  40.614  46.952  0.00  0.00    +0.000 A 
BRANCH   3   9
ATOM      9  O   UNL     1      22.626  42.732  47.855  0.00  0.00    +0.000 OA
BRANCH   9  12
ATOM     10  I   UNL     1      25.025  42.921  50.578  0.00  0.00    +0.000 I 
ATOM     11  C   UNL     1      24.970  42.162  48.609  0.00  0.00    +0.000 A 
ATOM     12  C   UNL     1      23.861  42.136  47.747  0.00  0.00    +0.000 A 
ATOM     13  C   UNL     1      26.153  41.495  48.238  0.00  0.00    +0.000 A 
ATOM     14  C   UNL     1      23.922  41.300  46.616  0.00  0.00    +0.000 A 
ATOM     15  C   UNL     1      26.203  40.706  47.090  0.00  0.00    +0.000 A 
ATOM     16  C   UNL     1      25.070  40.576  46.299  0.00  0.00    +0.000 A 
ENDBRANCH   9  12
ENDBRANCH   3   9
ENDBRANCH   1   8
BRANCH   2  17
ATOM     17  N   UNL     1      17.098  39.944  44.723  0.00  0.00    +0.000 N 
ATOM     18  C   UNL     1      16.766  41.205  44.253  0.00  0.00    +0.000 C 
ATOM     19  O   UNL     1      16.492  42.167  44.960  0.00  0.00    +0.000 OA
ATOM     20  H   UNL     1      17.384  39.275  44.061  0.00  0.00    +0.000 HD
BRANCH  18  21
ATOM     21  C   UNL     1      16.883  41.356  42.750  0.00  0.00    +0.000 C 
BRANCH  21  22
ATOM     22  C   UNL     1      18.300  41.829  42.421  0.00  0.00    +0.000 C 
BRANCH  22  23
ATOM     23  C   UNL     1      19.369  41.245  43.333  0.00  0.00    +0.000 C 
ATOM     24  C   UNL     1      20.677  42.034  43.262  0.00  0.00    +0.000 C 
ATOM     25  C   UNL     1      19.828  39.842  42.944  0.00  0.00    +0.000 C 
ATOM     26  C   UNL     1      21.728  41.083  43.825  0.00  0.00    +0.000 C 
ATOM     27  C   UNL     1      21.135  39.678  43.710  0.00  0.00    +0.000 C 
ENDBRANCH  22  23
ENDBRANCH  21  22
ENDBRANCH  18  21
ENDBRANCH   2  17
BRANCH   2  28
ATOM     28  C   UNL     1      15.854  38.784  46.527  0.00  0.00    +0.000 C 
ATOM     29  O   UNL     1      15.088  39.134  47.404  0.00  0.00    +0.000 OA
ATOM     30  OXT UNL     1      15.709  37.618  45.854  0.00  0.00    +0.000 OA
ENDBRANCH   2  28
TORSDOF 8
ENDMDL
