MODEL 1
REMARK VINA RESULT:      -7.8      0.000      0.000
REMARK  Name = 322234
REMARK  8 active torsions:
REMARK  status: ('A' for Active; 'I' for Inactive)
REMARK    1  A    between atoms: C_3  and  O_5
REMARK    2  A    between atoms: O_5  and  C_8
REMARK    3  A    between atoms: C_14  and  C_15
REMARK    4  A    between atoms: CA_16  and  N_17
REMARK    5  A    between atoms: CA_16  and  C_18
REMARK    6  A    between atoms: C_19  and  C_23
REMARK    7  A    between atoms: C_23  and  C_24
REMARK    8  A    between atoms: C_24  and  C_25
REMARK                            x       y       z     vdW  Elec       q    Type
REMARK                         _______ _______ _______ _____ _____    ______ ____
ROOT
ATOM      1  C   UNL     1      22.669  42.123  48.525  0.00  0.00    +0.000 C 
ATOM      2  CA  UNL     1      23.935  41.744  48.262  0.00  0.00    +0.000 C 
ENDROOT
BRANCH   1   8
ATOM      3  C   UNL     1      18.807  41.472  46.857  0.00  0.00    +0.000 A 
ATOM      4  C   UNL     1      19.693  40.402  46.963  0.00  0.00    +0.000 A 
ATOM      5  C   UNL     1      19.265  42.777  47.070  0.00  0.00    +0.000 A 
ATOM      6  C   UNL     1      20.986  40.624  47.452  0.00  0.00    +0.000 A 
ATOM      7  C   UNL     1      20.549  42.997  47.570  0.00  0.00    +0.000 A 
ATOM      8  C   UNL     1      21.405  41.916  47.796  0.00  0.00    +0.000 A 
BRANCH   3   9
ATOM      9  O   UNL     1      17.481  41.193  46.595  0.00  0.00    +0.000 OA
BRANCH   9  12
ATOM     10 BR   UNL     1      17.068  38.253  45.684  0.00  0.00    +0.000 Br
ATOM     11  C   UNL     1      16.938  39.852  44.673  0.00  0.00    +0.000 A 
ATOM     12  C   UNL     1      17.108  41.112  45.259  0.00  0.00    +0.000 A 
ATOM     13  C   UNL     1      16.656  39.744  43.305  0.00  0.00    +0.000 A 
ATOM     14  C   UNL     1      16.887  42.256  44.473  0.00  0.00    +0.000 A 
ATOM     15  C   UNL     1      16.514  40.891  42.522  0.00  0.00    +0.000 A 
ATOM     16  C   UNL     1      16.616  42.147  43.109  0.00  0.00    +0.000 A 
ENDBRANCH   9  12
ENDBRANCH   3   9
ENDBRANCH   1   8
BRANCH   2  17
ATOM     17  N   UNL     1      24.352  40.907  47.226  0.00  0.00    +0.000 N 
ATOM     18  C   UNL     1      24.092  39.548  47.109  0.00  0.00    +0.000 C 
ATOM     19  O   UNL     1      23.594  38.845  47.972  0.00  0.00    +0.000 OA
ATOM     20  H   UNL     1      24.882  41.322  46.507  0.00  0.00    +0.000 HD
BRANCH  18  21
ATOM     21  C   UNL     1      24.623  38.931  45.832  0.00  0.00    +0.000 C 
BRANCH  21  22
ATOM     22  C   UNL     1      23.460  38.337  45.038  0.00  0.00    +0.000 C 
BRANCH  22  23
ATOM     23  C   UNL     1      22.528  39.394  44.505  0.00  0.00    +0.000 A 
ATOM     24  C   UNL     1      21.296  39.028  43.945  0.00  0.00    +0.000 A 
ATOM     25  C   UNL     1      22.877  40.748  44.570  0.00  0.00    +0.000 A 
ATOM     26  C   UNL     1      20.429  40.003  43.449  0.00  0.00    +0.000 A 
ATOM     27  C   UNL     1      22.009  41.724  44.075  0.00  0.00    +0.000 A 
ATOM     28  C   UNL     1      20.791  41.346  43.511  0.00  0.00    +0.000 A 
ATOM     29 CL   UNL     1      19.732  42.547  42.884  0.00  0.00    +0.000 Cl
ENDBRANCH  22  23
ENDBRANCH  21  22
ENDBRANCH  18  21
ENDBRANCH   2  17
BRANCH   2  30
ATOM     30  C   UNL     1      24.943  42.373  49.200  0.00  0.00    +0.000 C 
ATOM     31  O   UNL     1      24.640  43.017  50.194  0.00  0.00    +0.000 OA
ATOM     32  OXT UNL     1      26.241  42.200  48.875  0.00  0.00    +0.000 OA
ENDBRANCH   2  30
TORSDOF 8
ENDMDL
MODEL 2
REMARK VINA RESULT:      -7.7      3.252      7.565
REMARK  Name = 322234
REMARK  8 active torsions:
REMARK  status: ('A' for Active; 'I' for Inactive)
REMARK    1  A    between atoms: C_3  and  O_5
REMARK    2  A    between atoms: O_5  and  C_8
REMARK    3  A    between atoms: C_14  and  C_15
REMARK    4  A    between atoms: CA_16  and  N_17
REMARK    5  A    between atoms: CA_16  and  C_18
REMARK    6  A    between atoms: C_19  and  C_23
REMARK    7  A    between atoms: C_23  and  C_24
REMARK    8  A    between atoms: C_24  and  C_25
REMARK                            x       y       z     vdW  Elec       q    Type
REMARK                         _______ _______ _______ _____ _____    ______ ____
ROOT
ATOM      1  C   UNL     1      20.121  41.875  43.557  0.00  0.00    +0.000 C 
ATOM      2  CA  UNL     1      18.782  42.029  43.564  0.00  0.00    +0.000 C 
ENDROOT
BRANCH   1   8
ATOM      3  C   UNL     1      22.530  40.910  46.931  0.00  0.00    +0.000 A 
ATOM      4  C   UNL     1      22.101  42.224  46.753  0.00  0.00    +0.000 A 
ATOM      5  C   UNL     1      22.374  39.981  45.896  0.00  0.00    +0.000 A 
ATOM      6  C   UNL     1      21.363  42.558  45.612  0.00  0.00    +0.000 A 
ATOM      7  C   UNL     1      21.626  40.311  44.765  0.00  0.00    +0.000 A 
ATOM      8  C   UNL     1      21.087  41.594  44.634  0.00  0.00    +0.000 A 
BRANCH   3   9
ATOM      9  O   UNL     1      23.051  40.557  48.160  0.00  0.00    +0.000 OA
BRANCH   9  12
ATOM     10 BR   UNL     1      25.777  40.561  46.672  0.00  0.00    +0.000 Br
ATOM     11  C   UNL     1      25.254  41.522  48.221  0.00  0.00    +0.000 A 
ATOM     12  C   UNL     1      23.955  41.441  48.737  0.00  0.00    +0.000 A 
ATOM     13  C   UNL     1      26.209  42.334  48.845  0.00  0.00    +0.000 A 
ATOM     14  C   UNL     1      23.607  42.266  49.820  0.00  0.00    +0.000 A 
ATOM     15  C   UNL     1      25.867  43.091  49.967  0.00  0.00    +0.000 A 
ATOM     16  C   UNL     1      24.563  43.066  50.446  0.00  0.00    +0.000 A 
ENDBRANCH   9  12
ENDBRANCH   3   9
ENDBRANCH   1   8
BRANCH   2  17
ATOM     17  N   UNL     1      17.929  41.828  44.650  0.00  0.00    +0.000 N 
ATOM     18  C   UNL     1      17.646  42.744  45.655  0.00  0.00    +0.000 C 
ATOM     19  O   UNL     1      18.220  43.806  45.828  0.00  0.00    +0.000 OA
ATOM     20  H   UNL     1      17.485  40.952  44.709  0.00  0.00    +0.000 HD
BRANCH  18  21
ATOM     21  C   UNL     1      16.625  42.252  46.660  0.00  0.00    +0.000 C 
BRANCH  21  22
ATOM     22  C   UNL     1      17.219  41.087  47.451  0.00  0.00    +0.000 C 
BRANCH  22  23
ATOM     23  C   UNL     1      17.091  39.774  46.724  0.00  0.00    +0.000 A 
ATOM     24  C   UNL     1      18.176  39.266  45.995  0.00  0.00    +0.000 A 
ATOM     25  C   UNL     1      15.895  39.048  46.771  0.00  0.00    +0.000 A 
ATOM     26  C   UNL     1      18.064  38.050  45.318  0.00  0.00    +0.000 A 
ATOM     27  C   UNL     1      15.783  37.831  46.094  0.00  0.00    +0.000 A 
ATOM     28  C   UNL     1      16.866  37.341  45.366  0.00  0.00    +0.000 A 
ATOM     29 CL   UNL     1      16.720  35.853  44.516  0.00  0.00    +0.000 Cl
ENDBRANCH  22  23
ENDBRANCH  21  22
ENDBRANCH  18  21
ENDBRANCH   2  17
BRANCH   2  30
ATOM     30  C   UNL     1      18.241  42.520  42.238  0.00  0.00    +0.000 C 
ATOM     31  O   UNL     1      18.580  43.570  41.710  0.00  0.00    +0.000 OA
ATOM     32  OXT UNL     1      17.323  41.729  41.644  0.00  0.00    +0.000 OA
ENDBRANCH   2  30
TORSDOF 8
ENDMDL
MODEL 3
REMARK VINA RESULT:      -7.5      3.027      7.346
REMARK  Name = 322234
REMARK  8 active torsions:
REMARK  status: ('A' for Active; 'I' for Inactive)
REMARK    1  A    between atoms: C_3  and  O_5
REMARK    2  A    between atoms: O_5  and  C_8
REMARK    3  A    between atoms: C_14  and  C_15
REMARK    4  A    between atoms: CA_16  and  N_17
REMARK    5  A    between atoms: CA_16  and  C_18
REMARK    6  A    between atoms: C_19  and  C_23
REMARK    7  A    between atoms: C_23  and  C_24
REMARK    8  A    between atoms: C_24  and  C_25
REMARK                            x       y       z     vdW  Elec       q    Type
REMARK                         _______ _______ _______ _____ _____    ______ ____
ROOT
ATOM      1  C   UNL     1      19.922  41.581  43.638  0.00  0.00    +0.000 C 
ATOM      2  CA  UNL     1      18.646  41.163  43.533  0.00  0.00    +0.000 C 
ENDROOT
BRANCH   1   8
ATOM      3  C   UNL     1      22.516  40.810  46.923  0.00  0.00    +0.000 A 
ATOM      4  C   UNL     1      21.945  42.074  46.788  0.00  0.00    +0.000 A 
ATOM      5  C   UNL     1      22.431  39.892  45.871  0.00  0.00    +0.000 A 
ATOM      6  C   UNL     1      21.143  42.351  45.675  0.00  0.00    +0.000 A 
ATOM      7  C   UNL     1      21.620  40.163  44.768  0.00  0.00    +0.000 A 
ATOM      8  C   UNL     1      20.943  41.383  44.682  0.00  0.00    +0.000 A 
BRANCH   3   9
ATOM      9  O   UNL     1      23.107  40.491  48.130  0.00  0.00    +0.000 OA
BRANCH   9  12
ATOM     10 BR   UNL     1      25.761  40.614  46.522  0.00  0.00    +0.000 Br
ATOM     11  C   UNL     1      25.262  41.559  48.089  0.00  0.00    +0.000 A 
ATOM     12  C   UNL     1      23.992  41.419  48.662  0.00  0.00    +0.000 A 
ATOM     13  C   UNL     1      26.204  42.419  48.666  0.00  0.00    +0.000 A 
ATOM     14  C   UNL     1      23.654  42.233  49.756  0.00  0.00    +0.000 A 
ATOM     15  C   UNL     1      25.877  43.165  49.800  0.00  0.00    +0.000 A 
ATOM     16  C   UNL     1      24.597  43.082  50.336  0.00  0.00    +0.000 A 
ENDBRANCH   9  12
ENDBRANCH   3   9
ENDBRANCH   1   8
BRANCH   2  17
ATOM     17  N   UNL     1      17.987  40.286  44.396  0.00  0.00    +0.000 N 
ATOM     18  C   UNL     1      18.221  38.923  44.523  0.00  0.00    +0.000 C 
ATOM     19  O   UNL     1      18.929  38.255  43.788  0.00  0.00    +0.000 OA
ATOM     20  H   UNL     1      17.287  40.672  44.972  0.00  0.00    +0.000 HD
BRANCH  18  21
ATOM     21  C   UNL     1      17.388  38.256  45.598  0.00  0.00    +0.000 C 
BRANCH  21  22
ATOM     22  C   UNL     1      16.330  39.240  46.097  0.00  0.00    +0.000 C 
BRANCH  22  23
ATOM     23  C   UNL     1      16.930  40.538  46.571  0.00  0.00    +0.000 A 
ATOM     24  C   UNL     1      16.358  41.759  46.184  0.00  0.00    +0.000 A 
ATOM     25  C   UNL     1      18.056  40.540  47.403  0.00  0.00    +0.000 A 
ATOM     26  C   UNL     1      16.910  42.965  46.618  0.00  0.00    +0.000 A 
ATOM     27  C   UNL     1      18.607  41.747  47.838  0.00  0.00    +0.000 A 
ATOM     28  C   UNL     1      18.036  42.954  47.439  0.00  0.00    +0.000 A 
ATOM     29 CL   UNL     1      18.728  44.440  47.960  0.00  0.00    +0.000 Cl
ENDBRANCH  22  23
ENDBRANCH  21  22
ENDBRANCH  18  21
ENDBRANCH   2  17
BRANCH   2  30
ATOM     30  C   UNL     1      17.914  41.795  42.368  0.00  0.00    +0.000 C 
ATOM     31  O   UNL     1      16.947  41.289  41.815  0.00  0.00    +0.000 OA
ATOM     32  OXT UNL     1      18.398  42.978  41.938  0.00  0.00    +0.000 OA
ENDBRANCH   2  30
TORSDOF 8
ENDMDL
MODEL 4
REMARK VINA RESULT:      -7.4      2.940      7.120
REMARK  Name = 322234
REMARK  8 active torsions:
REMARK  status: ('A' for Active; 'I' for Inactive)
REMARK    1  A    between atoms: C_3  and  O_5
REMARK    2  A    between atoms: O_5  and  C_8
REMARK    3  A    between atoms: C_14  and  C_15
REMARK    4  A    between atoms: CA_16  and  N_17
REMARK    5  A    between atoms: CA_16  and  C_18
REMARK    6  A    between atoms: C_19  and  C_23
REMARK    7  A    between atoms: C_23  and  C_24
REMARK    8  A    between atoms: C_24  and  C_25
REMARK                            x       y       z     vdW  Elec       q    Type
REMARK                         _______ _______ _______ _____ _____    ______ ____
ROOT
ATOM      1  C   UNL     1      17.836  39.935  47.087  0.00  0.00    +0.000 C 
ATOM      2  CA  UNL     1      16.950  39.759  46.087  0.00  0.00    +0.000 C 
ENDROOT
BRANCH   1   8
ATOM      3  C   UNL     1      21.508  41.973  47.775  0.00  0.00    +0.000 A 
ATOM      4  C   UNL     1      20.319  42.699  47.756  0.00  0.00    +0.000 A 
ATOM      5  C   UNL     1      21.519  40.644  47.337  0.00  0.00    +0.000 A 
ATOM      6  C   UNL     1      19.118  42.043  47.467  0.00  0.00    +0.000 A 
ATOM      7  C   UNL     1      20.319  39.987  47.062  0.00  0.00    +0.000 A 
ATOM      8  C   UNL     1      19.108  40.676  47.160  0.00  0.00    +0.000 A 
BRANCH   3   9
ATOM      9  O   UNL     1      22.636  42.587  48.284  0.00  0.00    +0.000 OA
BRANCH   9  12
ATOM     10 BR   UNL     1      24.730  43.075  50.525  0.00  0.00    +0.000 Br
ATOM     11  C   UNL     1      24.933  42.174  48.869  0.00  0.00    +0.000 A 
ATOM     12  C   UNL     1      23.860  41.999  47.987  0.00  0.00    +0.000 A 
ATOM     13  C   UNL     1      26.200  41.672  48.544  0.00  0.00    +0.000 A 
ATOM     14  C   UNL     1      24.057  41.226  46.830  0.00  0.00    +0.000 A 
ATOM     15  C   UNL     1      26.396  40.970  47.354  0.00  0.00    +0.000 A 
ATOM     16  C   UNL     1      25.321  40.735  46.504  0.00  0.00    +0.000 A 
ENDBRANCH   9  12
ENDBRANCH   3   9
ENDBRANCH   1   8
BRANCH   2  17
ATOM     17  N   UNL     1      16.976  40.379  44.837  0.00  0.00    +0.000 N 
ATOM     18  C   UNL     1      16.834  41.738  44.588  0.00  0.00    +0.000 C 
ATOM     19  O   UNL     1      16.507  42.578  45.410  0.00  0.00    +0.000 OA
ATOM     20  H   UNL     1      17.109  39.796  44.055  0.00  0.00    +0.000 HD
BRANCH  18  21
ATOM     21  C   UNL     1      16.977  42.111  43.128  0.00  0.00    +0.000 C 
BRANCH  21  22
ATOM     22  C   UNL     1      18.347  42.751  42.903  0.00  0.00    +0.000 C 
BRANCH  22  23
ATOM     23  C   UNL     1      19.479  41.815  43.235  0.00  0.00    +0.000 A 
ATOM     24  C   UNL     1      20.670  42.317  43.780  0.00  0.00    +0.000 A 
ATOM     25  C   UNL     1      19.355  40.438  43.010  0.00  0.00    +0.000 A 
ATOM     26  C   UNL     1      21.723  41.455  44.089  0.00  0.00    +0.000 A 
ATOM     27  C   UNL     1      20.408  39.576  43.320  0.00  0.00    +0.000 A 
ATOM     28  C   UNL     1      21.590  40.089  43.853  0.00  0.00    +0.000 A 
ATOM     29 CL   UNL     1      22.894  39.028  44.216  0.00  0.00    +0.000 Cl
ENDBRANCH  22  23
ENDBRANCH  21  22
ENDBRANCH  18  21
ENDBRANCH   2  17
BRANCH   2  30
ATOM     30  C   UNL     1      15.886  38.734  46.419  0.00  0.00    +0.000 C 
ATOM     31  O   UNL     1      15.772  37.660  45.845  0.00  0.00    +0.000 OA
ATOM     32  OXT UNL     1      15.026  39.071  47.401  0.00  0.00    +0.000 OA
ENDBRANCH   2  30
TORSDOF 8
ENDMDL
MODEL 5
REMARK VINA RESULT:      -7.4      1.164      1.972
REMARK  Name = 322234
REMARK  8 active torsions:
REMARK  status: ('A' for Active; 'I' for Inactive)
REMARK    1  A    between atoms: C_3  and  O_5
REMARK    2  A    between atoms: O_5  and  C_8
REMARK    3  A    between atoms: C_14  and  C_15
REMARK    4  A    between atoms: CA_16  and  N_17
REMARK    5  A    between atoms: CA_16  and  C_18
REMARK    6  A    between atoms: C_19  and  C_23
REMARK    7  A    between atoms: C_23  and  C_24
REMARK    8  A    between atoms: C_24  and  C_25
REMARK                            x       y       z     vdW  Elec       q    Type
REMARK                         _______ _______ _______ _____ _____    ______ ____
ROOT
ATOM      1  C   UNL     1      22.894  42.216  48.204  0.00  0.00    +0.000 C 
ATOM      2  CA  UNL     1      24.140  41.720  48.078  0.00  0.00    +0.000 C 
ENDROOT
BRANCH   1   8
ATOM      3  C   UNL     1      19.129  41.847  46.254  0.00  0.00    +0.000 A 
ATOM      4  C   UNL     1      19.738  40.709  46.780  0.00  0.00    +0.000 A 
ATOM      5  C   UNL     1      19.851  43.041  46.156  0.00  0.00    +0.000 A 
ATOM      6  C   UNL     1      21.005  40.816  47.365  0.00  0.00    +0.000 A 
ATOM      7  C   UNL     1      21.109  43.151  46.751  0.00  0.00    +0.000 A 
ATOM      8  C   UNL     1      21.677  42.045  47.390  0.00  0.00    +0.000 A 
BRANCH   3   9
ATOM      9  O   UNL     1      17.798  41.763  45.895  0.00  0.00    +0.000 OA
BRANCH   9  12
ATOM     10 BR   UNL     1      17.238  40.495  43.116  0.00  0.00    +0.000 Br
ATOM     11  C   UNL     1      16.820  39.833  44.843  0.00  0.00    +0.000 A 
ATOM     12  C   UNL     1      17.194  40.517  46.006  0.00  0.00    +0.000 A 
ATOM     13  C   UNL     1      16.125  38.621  44.932  0.00  0.00    +0.000 A 
ATOM     14  C   UNL     1      16.949  39.913  47.251  0.00  0.00    +0.000 A 
ATOM     15  C   UNL     1      15.823  38.071  46.179  0.00  0.00    +0.000 A 
ATOM     16  C   UNL     1      16.248  38.710  47.338  0.00  0.00    +0.000 A 
ENDBRANCH   9  12
ENDBRANCH   3   9
ENDBRANCH   1   8
BRANCH   2  17
ATOM     17  N   UNL     1      24.566  40.770  47.148  0.00  0.00    +0.000 N 
ATOM     18  C   UNL     1      24.184  39.435  47.100  0.00  0.00    +0.000 C 
ATOM     19  O   UNL     1      23.542  38.852  47.957  0.00  0.00    +0.000 OA
ATOM     20  H   UNL     1      25.197  41.077  46.458  0.00  0.00    +0.000 HD
BRANCH  18  21
ATOM     21  C   UNL     1      24.766  38.675  45.928  0.00  0.00    +0.000 C 
BRANCH  21  22
ATOM     22  C   UNL     1      23.629  38.063  45.110  0.00  0.00    +0.000 C 
BRANCH  22  23
ATOM     23  C   UNL     1      22.729  39.109  44.506  0.00  0.00    +0.000 A 
ATOM     24  C   UNL     1      23.199  40.416  44.314  0.00  0.00    +0.000 A 
ATOM     25  C   UNL     1      21.420  38.788  44.126  0.00  0.00    +0.000 A 
ATOM     26  C   UNL     1      22.369  41.390  43.756  0.00  0.00    +0.000 A 
ATOM     27  C   UNL     1      20.590  39.762  43.567  0.00  0.00    +0.000 A 
ATOM     28  C   UNL     1      21.066  41.060  43.390  0.00  0.00    +0.000 A 
ATOM     29 CL   UNL     1      20.037  42.264  42.720  0.00  0.00    +0.000 Cl
ENDBRANCH  22  23
ENDBRANCH  21  22
ENDBRANCH  18  21
ENDBRANCH   2  17
BRANCH   2  30
ATOM     30  C   UNL     1      25.122  42.347  49.045  0.00  0.00    +0.000 C 
ATOM     31  O   UNL     1      26.337  42.303  48.907  0.00  0.00    +0.000 OA
ATOM     32  OXT UNL     1      24.584  42.969  50.114  0.00  0.00    +0.000 OA
ENDBRANCH   2  30
TORSDOF 8
ENDMDL
MODEL 6
REMARK VINA RESULT:      -6.8      2.148      4.095
REMARK  Name = 322234
REMARK  8 active torsions:
REMARK  status: ('A' for Active; 'I' for Inactive)
REMARK    1  A    between atoms: C_3  and  O_5
REMARK    2  A    between atoms: O_5  and  C_8
REMARK    3  A    between atoms: C_14  and  C_15
REMARK    4  A    between atoms: CA_16  and  N_17
REMARK    5  A    between atoms: CA_16  and  C_18
REMARK    6  A    between atoms: C_19  and  C_23
REMARK    7  A    between atoms: C_23  and  C_24
REMARK    8  A    between atoms: C_24  and  C_25
REMARK                            x       y       z     vdW  Elec       q    Type
REMARK                         _______ _______ _______ _____ _____    ______ ____
ROOT
ATOM      1  C   UNL     1      24.568  41.077  46.901  0.00  0.00    +0.000 C 
ATOM      2  CA  UNL     1      24.259  41.779  48.009  0.00  0.00    +0.000 C 
ENDROOT
BRANCH   1   8
ATOM      3  C   UNL     1      21.855  39.525  44.012  0.00  0.00    +0.000 A 
ATOM      4  C   UNL     1      21.720  39.146  45.346  0.00  0.00    +0.000 A 
ATOM      5  C   UNL     1      23.004  40.207  43.595  0.00  0.00    +0.000 A 
ATOM      6  C   UNL     1      22.648  39.604  46.288  0.00  0.00    +0.000 A 
ATOM      7  C   UNL     1      23.922  40.674  44.537  0.00  0.00    +0.000 A 
ATOM      8  C   UNL     1      23.729  40.403  45.894  0.00  0.00    +0.000 A 
BRANCH   3   9
ATOM      9  O   UNL     1      20.810  39.255  43.151  0.00  0.00    +0.000 OA
BRANCH   9  12
ATOM     10 BR   UNL     1      18.234  37.722  43.962  0.00  0.00    +0.000 Br
ATOM     11  C   UNL     1      18.451  39.552  43.515  0.00  0.00    +0.000 A 
ATOM     12  C   UNL     1      19.706  40.095  43.218  0.00  0.00    +0.000 A 
ATOM     13  C   UNL     1      17.310  40.364  43.495  0.00  0.00    +0.000 A 
ATOM     14  C   UNL     1      19.808  41.481  43.005  0.00  0.00    +0.000 A 
ATOM     15  C   UNL     1      17.418  41.726  43.207  0.00  0.00    +0.000 A 
ATOM     16  C   UNL     1      18.669  42.286  42.976  0.00  0.00    +0.000 A 
ENDBRANCH   9  12
ENDBRANCH   3   9
ENDBRANCH   1   8
BRANCH   2  17
ATOM     17  N   UNL     1      22.981  42.155  48.424  0.00  0.00    +0.000 N 
ATOM     18  C   UNL     1      21.947  42.599  47.609  0.00  0.00    +0.000 C 
ATOM     19  O   UNL     1      22.049  42.879  46.426  0.00  0.00    +0.000 OA
ATOM     20  H   UNL     1      22.793  42.099  49.389  0.00  0.00    +0.000 HD
BRANCH  18  21
ATOM     21  C   UNL     1      20.655  42.866  48.351  0.00  0.00    +0.000 C 
BRANCH  21  22
ATOM     22  C   UNL     1      19.557  43.207  47.343  0.00  0.00    +0.000 C 
BRANCH  22  23
ATOM     23  C   UNL     1      18.586  42.073  47.145  0.00  0.00    +0.000 A 
ATOM     24  C   UNL     1      17.248  42.341  46.822  0.00  0.00    +0.000 A 
ATOM     25  C   UNL     1      19.008  40.744  47.274  0.00  0.00    +0.000 A 
ATOM     26  C   UNL     1      16.343  41.293  46.638  0.00  0.00    +0.000 A 
ATOM     27  C   UNL     1      18.104  39.696  47.089  0.00  0.00    +0.000 A 
ATOM     28  C   UNL     1      16.774  39.976  46.778  0.00  0.00    +0.000 A 
ATOM     29 CL   UNL     1      15.656  38.685  46.570  0.00  0.00    +0.000 Cl
ENDBRANCH  22  23
ENDBRANCH  21  22
ENDBRANCH  18  21
ENDBRANCH   2  17
BRANCH   2  30
ATOM     30  C   UNL     1      25.472  42.105  48.855  0.00  0.00    +0.000 C 
ATOM     31  O   UNL     1      25.451  42.867  49.811  0.00  0.00    +0.000 OA
ATOM     32  OXT UNL     1      26.626  41.509  48.489  0.00  0.00    +0.000 OA
ENDBRANCH   2  30
TORSDOF 8
ENDMDL
MODEL 7
REMARK VINA RESULT:      -6.6      2.825      7.007
REMARK  Name = 322234
REMARK  8 active torsions:
REMARK  status: ('A' for Active; 'I' for Inactive)
REMARK    1  A    between atoms: C_3  and  O_5
REMARK    2  A    between atoms: O_5  and  C_8
REMARK    3  A    between atoms: C_14  and  C_15
REMARK    4  A    between atoms: CA_16  and  N_17
REMARK    5  A    between atoms: CA_16  and  C_18
REMARK    6  A    between atoms: C_19  and  C_23
REMARK    7  A    between atoms: C_23  and  C_24
REMARK    8  A    between atoms: C_24  and  C_25
REMARK                            x       y       z     vdW  Elec       q    Type
REMARK                         _______ _______ _______ _____ _____    ______ ____
ROOT
ATOM      1  C   UNL     1      18.713  43.305  46.317  0.00  0.00    +0.000 C 
ATOM      2  CA  UNL     1      17.556  43.073  45.666  0.00  0.00    +0.000 C 
ENDROOT
BRANCH   1   8
ATOM      3  C   UNL     1      22.177  41.075  47.383  0.00  0.00    +0.000 A 
ATOM      4  C   UNL     1      22.328  42.298  46.732  0.00  0.00    +0.000 A 
ATOM      5  C   UNL     1      20.912  40.482  47.466  0.00  0.00    +0.000 A 
ATOM      6  C   UNL     1      21.191  43.004  46.323  0.00  0.00    +0.000 A 
ATOM      7  C   UNL     1      19.778  41.192  47.071  0.00  0.00    +0.000 A 
ATOM      8  C   UNL     1      19.910  42.473  46.528  0.00  0.00    +0.000 A 
BRANCH   3   9
ATOM      9  O   UNL     1      23.291  40.514  47.977  0.00  0.00    +0.000 OA
BRANCH   9  12
ATOM     10 BR   UNL     1      25.988  40.704  46.449  0.00  0.00    +0.000 Br
ATOM     11  C   UNL     1      25.464  41.541  48.068  0.00  0.00    +0.000 A 
ATOM     12  C   UNL     1      24.178  41.384  48.597  0.00  0.00    +0.000 A 
ATOM     13  C   UNL     1      26.406  42.338  48.730  0.00  0.00    +0.000 A 
ATOM     14  C   UNL     1      23.825  42.122  49.740  0.00  0.00    +0.000 A 
ATOM     15  C   UNL     1      26.062  43.005  49.907  0.00  0.00    +0.000 A 
ATOM     16  C   UNL     1      24.768  42.908  50.404  0.00  0.00    +0.000 A 
ENDBRANCH   9  12
ENDBRANCH   3   9
ENDBRANCH   1   8
BRANCH   2  17
ATOM     17  N   UNL     1      17.252  41.955  44.888  0.00  0.00    +0.000 N 
ATOM     18  C   UNL     1      16.708  40.760  45.340  0.00  0.00    +0.000 C 
ATOM     19  O   UNL     1      16.560  40.447  46.509  0.00  0.00    +0.000 OA
ATOM     20  H   UNL     1      17.441  42.021  43.924  0.00  0.00    +0.000 HD
BRANCH  18  21
ATOM     21  C   UNL     1      16.429  39.759  44.238  0.00  0.00    +0.000 C 
BRANCH  21  22
ATOM     22  C   UNL     1      17.234  40.140  42.996  0.00  0.00    +0.000 C 
BRANCH  22  23
ATOM     23  C   UNL     1      18.717  40.169  43.260  0.00  0.00    +0.000 A 
ATOM     24  C   UNL     1      19.463  41.318  42.959  0.00  0.00    +0.000 A 
ATOM     25  C   UNL     1      19.364  39.056  43.811  0.00  0.00    +0.000 A 
ATOM     26  C   UNL     1      20.838  41.350  43.200  0.00  0.00    +0.000 A 
ATOM     27  C   UNL     1      20.739  39.088  44.052  0.00  0.00    +0.000 A 
ATOM     28  C   UNL     1      21.471  40.233  43.740  0.00  0.00    +0.000 A 
ATOM     29 CL   UNL     1      23.167  40.264  44.020  0.00  0.00    +0.000 Cl
ENDBRANCH  22  23
ENDBRANCH  21  22
ENDBRANCH  18  21
ENDBRANCH   2  17
BRANCH   2  30
ATOM     30  C   UNL     1      16.524  44.156  45.898  0.00  0.00    +0.000 C 
ATOM     31  O   UNL     1      16.169  44.534  47.006  0.00  0.00    +0.000 OA
ATOM     32  OXT UNL     1      15.978  44.700  44.791  0.00  0.00    +0.000 OA
ENDBRANCH   2  30
TORSDOF 8
ENDMDL
MODEL 8
REMARK VINA RESULT:      -6.2      1.978      4.091
REMARK  Name = 322234
REMARK  8 active torsions:
REMARK  status: ('A' for Active; 'I' for Inactive)
REMARK    1  A    between atoms: C_3  and  O_5
REMARK    2  A    between atoms: O_5  and  C_8
REMARK    3  A    between atoms: C_14  and  C_15
REMARK    4  A    between atoms: CA_16  and  N_17
REMARK    5  A    between atoms: CA_16  and  C_18
REMARK    6  A    between atoms: C_19  and  C_23
REMARK    7  A    between atoms: C_23  and  C_24
REMARK    8  A    between atoms: C_24  and  C_25
REMARK                            x       y       z     vdW  Elec       q    Type
REMARK                         _______ _______ _______ _____ _____    ______ ____
ROOT
ATOM      1  C   UNL     1      24.162  40.632  45.201  0.00  0.00    +0.000 C 
ATOM      2  CA  UNL     1      24.333  41.388  46.303  0.00  0.00    +0.000 C 
ENDROOT
BRANCH   1   8
ATOM      3  C   UNL     1      20.437  39.556  43.447  0.00  0.00    +0.000 A 
ATOM      4  C   UNL     1      21.306  38.552  43.870  0.00  0.00    +0.000 A 
ATOM      5  C   UNL     1      20.884  40.880  43.379  0.00  0.00    +0.000 A 
ATOM      6  C   UNL     1      22.558  38.901  44.388  0.00  0.00    +0.000 A 
ATOM      7  C   UNL     1      22.127  41.229  43.909  0.00  0.00    +0.000 A 
ATOM      8  C   UNL     1      22.957  40.242  44.448  0.00  0.00    +0.000 A 
BRANCH   3   9
ATOM      9  O   UNL     1      19.132  39.207  43.158  0.00  0.00    +0.000 OA
BRANCH   9  12
ATOM     10 BR   UNL     1      16.781  41.068  42.352  0.00  0.00    +0.000 Br
ATOM     11  C   UNL     1      17.108  40.195  44.003  0.00  0.00    +0.000 A 
ATOM     12  C   UNL     1      18.204  39.342  44.182  0.00  0.00    +0.000 A 
ATOM     13  C   UNL     1      16.212  40.421  45.055  0.00  0.00    +0.000 A 
ATOM     14  C   UNL     1      18.322  38.643  45.396  0.00  0.00    +0.000 A 
ATOM     15  C   UNL     1      16.387  39.776  46.281  0.00  0.00    +0.000 A 
ATOM     16  C   UNL     1      17.434  38.877  46.446  0.00  0.00    +0.000 A 
ENDBRANCH   9  12
ENDBRANCH   3   9
ENDBRANCH   1   8
BRANCH   2  17
ATOM     17  N   UNL     1      23.348  42.124  46.964  0.00  0.00    +0.000 N 
ATOM     18  C   UNL     1      22.283  41.609  47.692  0.00  0.00    +0.000 C 
ATOM     19  O   UNL     1      21.955  40.435  47.732  0.00  0.00    +0.000 OA
ATOM     20  H   UNL     1      23.416  43.105  46.910  0.00  0.00    +0.000 HD
BRANCH  18  21
ATOM     21  C   UNL     1      21.423  42.668  48.350  0.00  0.00    +0.000 C 
BRANCH  21  22
ATOM     22  C   UNL     1      20.000  42.132  48.511  0.00  0.00    +0.000 C 
BRANCH  22  23
ATOM     23  C   UNL     1      19.076  42.623  47.428  0.00  0.00    +0.000 A 
ATOM     24  C   UNL     1      17.794  43.089  47.756  0.00  0.00    +0.000 A 
ATOM     25  C   UNL     1      19.485  42.626  46.089  0.00  0.00    +0.000 A 
ATOM     26  C   UNL     1      16.932  43.544  46.757  0.00  0.00    +0.000 A 
ATOM     27  C   UNL     1      18.623  43.083  45.090  0.00  0.00    +0.000 A 
ATOM     28  C   UNL     1      17.348  43.535  45.427  0.00  0.00    +0.000 A 
ATOM     29 CL   UNL     1      16.280  44.078  44.194  0.00  0.00    +0.000 Cl
ENDBRANCH  22  23
ENDBRANCH  21  22
ENDBRANCH  18  21
ENDBRANCH   2  17
BRANCH   2  30
ATOM     30  C   UNL     1      25.748  41.336  46.839  0.00  0.00    +0.000 C 
ATOM     31  O   UNL     1      26.491  40.374  46.706  0.00  0.00    +0.000 OA
ATOM     32  OXT UNL     1      26.168  42.429  47.508  0.00  0.00    +0.000 OA
ENDBRANCH   2  30
TORSDOF 8
ENDMDL
MODEL 9
REMARK VINA RESULT:      -6.0      2.061      4.128
REMARK  Name = 322234
REMARK  8 active torsions:
REMARK  status: ('A' for Active; 'I' for Inactive)
REMARK    1  A    between atoms: C_3  and  O_5
REMARK    2  A    between atoms: O_5  and  C_8
REMARK    3  A    between atoms: C_14  and  C_15
REMARK    4  A    between atoms: CA_16  and  N_17
REMARK    5  A    between atoms: CA_16  and  C_18
REMARK    6  A    between atoms: C_19  and  C_23
REMARK    7  A    between atoms: C_23  and  C_24
REMARK    8  A    between atoms: C_24  and  C_25
REMARK                            x       y       z     vdW  Elec       q    Type
REMARK                         _______ _______ _______ _____ _____    ______ ____
ROOT
ATOM      1  C   UNL     1      23.465  40.227  44.707  0.00  0.00    +0.000 C 
ATOM      2  CA  UNL     1      23.883  40.996  45.732  0.00  0.00    +0.000 C 
ENDROOT
BRANCH   1   8
ATOM      3  C   UNL     1      19.420  39.568  43.560  0.00  0.00    +0.000 A 
ATOM      4  C   UNL     1      20.204  38.482  43.945  0.00  0.00    +0.000 A 
ATOM      5  C   UNL     1      20.018  40.810  43.323  0.00  0.00    +0.000 A 
ATOM      6  C   UNL     1      21.552  38.686  44.262  0.00  0.00    +0.000 A 
ATOM      7  C   UNL     1      21.359  41.016  43.652  0.00  0.00    +0.000 A 
ATOM      8  C   UNL     1      22.124  39.961  44.156  0.00  0.00    +0.000 A 
BRANCH   3   9
ATOM      9  O   UNL     1      18.053  39.384  43.477  0.00  0.00    +0.000 OA
BRANCH   9  12
ATOM     10 BR   UNL     1      17.374  36.425  44.132  0.00  0.00    +0.000 Br
ATOM     11  C   UNL     1      16.928  37.999  45.090  0.00  0.00    +0.000 A 
ATOM     12  C   UNL     1      17.362  39.264  44.676  0.00  0.00    +0.000 A 
ATOM     13  C   UNL     1      16.147  37.866  46.245  0.00  0.00    +0.000 A 
ATOM     14  C   UNL     1      17.087  40.372  45.495  0.00  0.00    +0.000 A 
ATOM     15  C   UNL     1      15.819  38.988  47.008  0.00  0.00    +0.000 A 
ATOM     16  C   UNL     1      16.301  40.239  46.640  0.00  0.00    +0.000 A 
ENDBRANCH   9  12
ENDBRANCH   3   9
ENDBRANCH   1   8
BRANCH   2  17
ATOM     17  N   UNL     1      23.099  41.870  46.487  0.00  0.00    +0.000 N 
ATOM     18  C   UNL     1      22.242  41.522  47.523  0.00  0.00    +0.000 C 
ATOM     19  O   UNL     1      21.924  40.384  47.826  0.00  0.00    +0.000 OA
ATOM     20  H   UNL     1      23.161  42.827  46.264  0.00  0.00    +0.000 HD
BRANCH  18  21
ATOM     21  C   UNL     1      21.581  42.707  48.194  0.00  0.00    +0.000 C 
BRANCH  21  22
ATOM     22  C   UNL     1      20.134  42.350  48.536  0.00  0.00    +0.000 C 
BRANCH  22  23
ATOM     23  C   UNL     1      19.164  42.810  47.479  0.00  0.00    +0.000 A 
ATOM     24  C   UNL     1      19.538  42.797  46.128  0.00  0.00    +0.000 A 
ATOM     25  C   UNL     1      17.882  43.248  47.832  0.00  0.00    +0.000 A 
ATOM     26  C   UNL     1      18.644  43.223  45.144  0.00  0.00    +0.000 A 
ATOM     27  C   UNL     1      16.988  43.674  46.848  0.00  0.00    +0.000 A 
ATOM     28  C   UNL     1      17.375  43.665  45.509  0.00  0.00    +0.000 A 
ATOM     29 CL   UNL     1      16.279  44.208  44.300  0.00  0.00    +0.000 Cl
ENDBRANCH  22  23
ENDBRANCH  21  22
ENDBRANCH  18  21
ENDBRANCH   2  17
BRANCH   2  30
ATOM     30  C   UNL     1      25.346  40.791  46.061  0.00  0.00    +0.000 C 
ATOM     31  O   UNL     1      26.009  39.845  45.659  0.00  0.00    +0.000 OA
ATOM     32  OXT UNL     1      25.909  41.721  46.859  0.00  0.00    +0.000 OA
ENDBRANCH   2  30
TORSDOF 8
ENDMDL
