MODEL 1
REMARK VINA RESULT:      -8.4      0.000      0.000
REMARK  Name = 319869
REMARK  7 active torsions:
REMARK  status: ('A' for Active; 'I' for Inactive)
REMARK    1  A    between atoms: C_3  and  O_5
REMARK    2  A    between atoms: O_5  and  C_8
REMARK    3  A    between atoms: C_14  and  C_15
REMARK    4  A    between atoms: CA_16  and  N_17
REMARK    5  A    between atoms: CA_16  and  C_18
REMARK    6  A    between atoms: C_19  and  C_23
REMARK    7  A    between atoms: C_24  and  O_26
REMARK                            x       y       z     vdW  Elec       q    Type
REMARK                         _______ _______ _______ _____ _____    ______ ____
ROOT
ATOM      1  C   UNL     1      20.296  42.439  43.472  0.00  0.00    +0.000 C 
ATOM      2  CA  UNL     1      18.994  42.130  43.363  0.00  0.00    +0.000 C 
ENDROOT
BRANCH   1   8
ATOM      3  C   UNL     1      22.480  41.250  46.892  0.00  0.00    +0.000 A 
ATOM      4  C   UNL     1      21.968  42.546  46.817  0.00  0.00    +0.000 A 
ATOM      5  C   UNL     1      22.512  40.448  45.746  0.00  0.00    +0.000 A 
ATOM      6  C   UNL     1      21.349  42.988  45.644  0.00  0.00    +0.000 A 
ATOM      7  C   UNL     1      21.874  40.880  44.580  0.00  0.00    +0.000 A 
ATOM      8  C   UNL     1      21.246  42.133  44.543  0.00  0.00    +0.000 A 
BRANCH   3   9
ATOM      9  O   UNL     1      22.917  40.810  48.123  0.00  0.00    +0.000 OA
BRANCH   9  12
ATOM     10 BR   UNL     1      25.693  40.604  46.797  0.00  0.00    +0.000 Br
ATOM     11  C   UNL     1      25.175  41.573  48.344  0.00  0.00    +0.000 A 
ATOM     12  C   UNL     1      23.850  41.577  48.799  0.00  0.00    +0.000 A 
ATOM     13  C   UNL     1      26.162  42.293  49.028  0.00  0.00    +0.000 A 
ATOM     14  C   UNL     1      23.516  42.388  49.897  0.00  0.00    +0.000 A 
ATOM     15  C   UNL     1      25.828  43.039  50.160  0.00  0.00    +0.000 A 
ATOM     16  C   UNL     1      24.504  43.095  50.586  0.00  0.00    +0.000 A 
ENDBRANCH   9  12
ENDBRANCH   3   9
ENDBRANCH   1   8
BRANCH   2  17
ATOM     17  N   UNL     1      18.324  41.299  44.251  0.00  0.00    +0.000 N 
ATOM     18  C   UNL     1      18.381  39.928  44.063  0.00  0.00    +0.000 C 
ATOM     19  O   UNL     1      19.076  39.387  43.211  0.00  0.00    +0.000 OA
ATOM     20  H   UNL     1      17.815  41.680  45.004  0.00  0.00    +0.000 HD
BRANCH  18  21
ATOM     21  C   UNL     1      17.542  39.076  44.937  0.00  0.00    +0.000 A 
ATOM     22  C   UNL     1      17.726  37.688  44.920  0.00  0.00    +0.000 A 
ATOM     23  C   UNL     1      16.664  39.646  45.869  0.00  0.00    +0.000 A 
ATOM     24  C   UNL     1      17.032  36.872  45.808  0.00  0.00    +0.000 A 
ATOM     25  C   UNL     1      15.990  38.828  46.779  0.00  0.00    +0.000 A 
ATOM     26  C   UNL     1      16.176  37.444  46.749  0.00  0.00    +0.000 A 
BRANCH  22  27
ATOM     27  O   UNL     1      18.591  37.062  44.062  0.00  0.00    +0.000 OA
ATOM     28  H   UNL     1      18.393  36.205  43.739  0.00  0.00    +0.000 HD
ENDBRANCH  22  27
ENDBRANCH  18  21
ENDBRANCH   2  17
BRANCH   2  29
ATOM     29  C   UNL     1      18.279  42.751  42.191  0.00  0.00    +0.000 C 
ATOM     30  O   UNL     1      18.559  43.836  41.708  0.00  0.00    +0.000 OA
ATOM     31  OXT UNL     1      17.317  41.963  41.665  0.00  0.00    +0.000 OA
ENDBRANCH   2  29
TORSDOF 7
ENDMDL
MODEL 2
REMARK VINA RESULT:      -7.8      1.821      2.068
REMARK  Name = 319869
REMARK  7 active torsions:
REMARK  status: ('A' for Active; 'I' for Inactive)
REMARK    1  A    between atoms: C_3  and  O_5
REMARK    2  A    between atoms: O_5  and  C_8
REMARK    3  A    between atoms: C_14  and  C_15
REMARK    4  A    between atoms: CA_16  and  N_17
REMARK    5  A    between atoms: CA_16  and  C_18
REMARK    6  A    between atoms: C_19  and  C_23
REMARK    7  A    between atoms: C_24  and  O_26
REMARK                            x       y       z     vdW  Elec       q    Type
REMARK                         _______ _______ _______ _____ _____    ______ ____
ROOT
ATOM      1  C   UNL     1      19.087  42.953  45.658  0.00  0.00    +0.000 C 
ATOM      2  CA  UNL     1      17.904  42.526  45.188  0.00  0.00    +0.000 C 
ENDROOT
BRANCH   1   8
ATOM      3  C   UNL     1      22.415  40.973  47.354  0.00  0.00    +0.000 A 
ATOM      4  C   UNL     1      22.586  42.227  46.767  0.00  0.00    +0.000 A 
ATOM      5  C   UNL     1      21.230  40.261  47.142  0.00  0.00    +0.000 A 
ATOM      6  C   UNL     1      21.520  42.837  46.099  0.00  0.00    +0.000 A 
ATOM      7  C   UNL     1      20.158  40.878  46.493  0.00  0.00    +0.000 A 
ATOM      8  C   UNL     1      20.285  42.190  46.014  0.00  0.00    +0.000 A 
BRANCH   3   9
ATOM      9  O   UNL     1      23.438  40.500  48.150  0.00  0.00    +0.000 OA
BRANCH   9  12
ATOM     10 BR   UNL     1      26.154  40.872  46.739  0.00  0.00    +0.000 Br
ATOM     11  C   UNL     1      25.509  41.687  48.327  0.00  0.00    +0.000 A 
ATOM     12  C   UNL     1      24.226  41.420  48.820  0.00  0.00    +0.000 A 
ATOM     13  C   UNL     1      26.359  42.572  49.002  0.00  0.00    +0.000 A 
ATOM     14  C   UNL     1      23.776  42.126  49.948  0.00  0.00    +0.000 A 
ATOM     15  C   UNL     1      25.924  43.213  50.163  0.00  0.00    +0.000 A 
ATOM     16  C   UNL     1      24.629  42.999  50.629  0.00  0.00    +0.000 A 
ENDBRANCH   9  12
ENDBRANCH   3   9
ENDBRANCH   1   8
BRANCH   2  17
ATOM     17  N   UNL     1      17.654  41.212  44.814  0.00  0.00    +0.000 N 
ATOM     18  C   UNL     1      17.106  40.341  45.741  0.00  0.00    +0.000 C 
ATOM     19  O   UNL     1      16.729  40.684  46.856  0.00  0.00    +0.000 OA
ATOM     20  H   UNL     1      17.863  40.904  43.902  0.00  0.00    +0.000 HD
BRANCH  18  21
ATOM     21  C   UNL     1      16.984  38.915  45.361  0.00  0.00    +0.000 A 
ATOM     22  C   UNL     1      17.874  38.378  44.422  0.00  0.00    +0.000 A 
ATOM     23  C   UNL     1      16.080  38.071  46.019  0.00  0.00    +0.000 A 
ATOM     24  C   UNL     1      17.855  37.018  44.128  0.00  0.00    +0.000 A 
ATOM     25  C   UNL     1      16.082  36.700  45.744  0.00  0.00    +0.000 A 
ATOM     26  C   UNL     1      16.969  36.176  44.801  0.00  0.00    +0.000 A 
BRANCH  22  27
ATOM     27  O   UNL     1      18.807  39.133  43.765  0.00  0.00    +0.000 OA
ATOM     28  H   UNL     1      18.772  39.214  42.832  0.00  0.00    +0.000 HD
ENDBRANCH  22  27
ENDBRANCH  18  21
ENDBRANCH   2  17
BRANCH   2  29
ATOM     29  C   UNL     1      16.832  43.580  45.084  0.00  0.00    +0.000 C 
ATOM     30  O   UNL     1      16.381  44.003  44.032  0.00  0.00    +0.000 OA
ATOM     31  OXT UNL     1      16.354  43.984  46.280  0.00  0.00    +0.000 OA
ENDBRANCH   2  29
TORSDOF 7
ENDMDL
MODEL 3
REMARK VINA RESULT:      -7.6      2.828      7.097
REMARK  Name = 319869
REMARK  7 active torsions:
REMARK  status: ('A' for Active; 'I' for Inactive)
REMARK    1  A    between atoms: C_3  and  O_5
REMARK    2  A    between atoms: O_5  and  C_8
REMARK    3  A    between atoms: C_14  and  C_15
REMARK    4  A    between atoms: CA_16  and  N_17
REMARK    5  A    between atoms: CA_16  and  C_18
REMARK    6  A    between atoms: C_19  and  C_23
REMARK    7  A    between atoms: C_24  and  O_26
REMARK                            x       y       z     vdW  Elec       q    Type
REMARK                         _______ _______ _______ _____ _____    ______ ____
ROOT
ATOM      1  C   UNL     1      23.726  40.444  45.163  0.00  0.00    +0.000 C 
ATOM      2  CA  UNL     1      23.805  41.327  46.171  0.00  0.00    +0.000 C 
ENDROOT
BRANCH   1   8
ATOM      3  C   UNL     1      20.003  39.495  43.398  0.00  0.00    +0.000 A 
ATOM      4  C   UNL     1      20.731  38.498  44.047  0.00  0.00    +0.000 A 
ATOM      5  C   UNL     1      20.613  40.716  43.094  0.00  0.00    +0.000 A 
ATOM      6  C   UNL     1      22.015  38.770  44.529  0.00  0.00    +0.000 A 
ATOM      7  C   UNL     1      21.888  40.997  43.594  0.00  0.00    +0.000 A 
ATOM      8  C   UNL     1      22.571  40.041  44.358  0.00  0.00    +0.000 A 
BRANCH   3   9
ATOM      9  O   UNL     1      18.682  39.228  43.103  0.00  0.00    +0.000 OA
BRANCH   9  12
ATOM     10 BR   UNL     1      17.076  41.598  44.248  0.00  0.00    +0.000 Br
ATOM     11  C   UNL     1      17.070  39.778  44.786  0.00  0.00    +0.000 A 
ATOM     12  C   UNL     1      17.852  38.817  44.133  0.00  0.00    +0.000 A 
ATOM     13  C   UNL     1      16.255  39.415  45.865  0.00  0.00    +0.000 A 
ATOM     14  C   UNL     1      17.732  37.472  44.520  0.00  0.00    +0.000 A 
ATOM     15  C   UNL     1      16.200  38.085  46.286  0.00  0.00    +0.000 A 
ATOM     16  C   UNL     1      16.929  37.113  45.606  0.00  0.00    +0.000 A 
ENDBRANCH   9  12
ENDBRANCH   3   9
ENDBRANCH   1   8
BRANCH   2  17
ATOM     17  N   UNL     1      22.757  42.156  46.552  0.00  0.00    +0.000 N 
ATOM     18  C   UNL     1      21.642  41.598  47.153  0.00  0.00    +0.000 C 
ATOM     19  O   UNL     1      21.558  40.416  47.467  0.00  0.00    +0.000 OA
ATOM     20  H   UNL     1      22.808  43.127  46.396  0.00  0.00    +0.000 HD
BRANCH  18  21
ATOM     21  C   UNL     1      20.483  42.482  47.416  0.00  0.00    +0.000 A 
ATOM     22  C   UNL     1      19.949  43.240  46.367  0.00  0.00    +0.000 A 
ATOM     23  C   UNL     1      19.840  42.473  48.661  0.00  0.00    +0.000 A 
ATOM     24  C   UNL     1      18.794  43.995  46.557  0.00  0.00    +0.000 A 
ATOM     25  C   UNL     1      18.665  43.208  48.842  0.00  0.00    +0.000 A 
ATOM     26  C   UNL     1      18.144  43.966  47.790  0.00  0.00    +0.000 A 
BRANCH  22  27
ATOM     27  O   UNL     1      20.502  43.273  45.115  0.00  0.00    +0.000 OA
ATOM     28  H   UNL     1      20.944  42.518  44.778  0.00  0.00    +0.000 HD
ENDBRANCH  22  27
ENDBRANCH  18  21
ENDBRANCH   2  17
BRANCH   2  29
ATOM     29  C   UNL     1      25.130  41.373  46.888  0.00  0.00    +0.000 C 
ATOM     30  O   UNL     1      25.387  42.124  47.814  0.00  0.00    +0.000 OA
ATOM     31  OXT UNL     1      26.012  40.449  46.451  0.00  0.00    +0.000 OA
ENDBRANCH   2  29
TORSDOF 7
ENDMDL
MODEL 4
REMARK VINA RESULT:      -7.3      3.242      7.809
REMARK  Name = 319869
REMARK  7 active torsions:
REMARK  status: ('A' for Active; 'I' for Inactive)
REMARK    1  A    between atoms: C_3  and  O_5
REMARK    2  A    between atoms: O_5  and  C_8
REMARK    3  A    between atoms: C_14  and  C_15
REMARK    4  A    between atoms: CA_16  and  N_17
REMARK    5  A    between atoms: CA_16  and  C_18
REMARK    6  A    between atoms: C_19  and  C_23
REMARK    7  A    between atoms: C_24  and  O_26
REMARK                            x       y       z     vdW  Elec       q    Type
REMARK                         _______ _______ _______ _____ _____    ______ ____
ROOT
ATOM      1  C   UNL     1      23.234  39.025  44.666  0.00  0.00    +0.000 C 
ATOM      2  CA  UNL     1      23.807  38.813  45.861  0.00  0.00    +0.000 C 
ENDROOT
BRANCH   1   8
ATOM      3  C   UNL     1      20.169  41.849  43.951  0.00  0.00    +0.000 A 
ATOM      4  C   UNL     1      20.225  40.684  43.185  0.00  0.00    +0.000 A 
ATOM      5  C   UNL     1      21.260  42.209  44.748  0.00  0.00    +0.000 A 
ATOM      6  C   UNL     1      21.299  39.802  43.330  0.00  0.00    +0.000 A 
ATOM      7  C   UNL     1      22.325  41.319  44.910  0.00  0.00    +0.000 A 
ATOM      8  C   UNL     1      22.321  40.088  44.239  0.00  0.00    +0.000 A 
BRANCH   3   9
ATOM      9  O   UNL     1      19.006  42.588  43.899  0.00  0.00    +0.000 OA
BRANCH   9  12
ATOM     10 BR   UNL     1      16.830  40.406  44.005  0.00  0.00    +0.000 Br
ATOM     11  C   UNL     1      17.191  41.797  45.245  0.00  0.00    +0.000 A 
ATOM     12  C   UNL     1      18.247  42.697  45.052  0.00  0.00    +0.000 A 
ATOM     13  C   UNL     1      16.366  41.902  46.371  0.00  0.00    +0.000 A 
ATOM     14  C   UNL     1      18.517  43.645  46.052  0.00  0.00    +0.000 A 
ATOM     15  C   UNL     1      16.603  42.896  47.323  0.00  0.00    +0.000 A 
ATOM     16  C   UNL     1      17.685  43.758  47.169  0.00  0.00    +0.000 A 
ENDBRANCH   9  12
ENDBRANCH   3   9
ENDBRANCH   1   8
BRANCH   2  17
ATOM     17  N   UNL     1      23.726  39.704  46.923  0.00  0.00    +0.000 N 
ATOM     18  C   UNL     1      24.744  40.623  47.110  0.00  0.00    +0.000 C 
ATOM     19  O   UNL     1      25.679  40.770  46.331  0.00  0.00    +0.000 OA
ATOM     20  H   UNL     1      22.953  39.682  47.534  0.00  0.00    +0.000 HD
BRANCH  18  21
ATOM     21  C   UNL     1      24.701  41.462  48.329  0.00  0.00    +0.000 A 
ATOM     22  C   UNL     1      25.893  41.995  48.836  0.00  0.00    +0.000 A 
ATOM     23  C   UNL     1      23.478  41.834  48.903  0.00  0.00    +0.000 A 
ATOM     24  C   UNL     1      25.872  42.877  49.913  0.00  0.00    +0.000 A 
ATOM     25  C   UNL     1      23.456  42.741  49.966  0.00  0.00    +0.000 A 
ATOM     26  C   UNL     1      24.652  43.262  50.468  0.00  0.00    +0.000 A 
BRANCH  22  27
ATOM     27  O   UNL     1      27.122  41.706  48.306  0.00  0.00    +0.000 OA
ATOM     28  H   UNL     1      27.221  40.982  47.719  0.00  0.00    +0.000 HD
ENDBRANCH  22  27
ENDBRANCH  18  21
ENDBRANCH   2  17
BRANCH   2  29
ATOM     29  C   UNL     1      24.568  37.518  45.991  0.00  0.00    +0.000 C 
ATOM     30  O   UNL     1      25.628  37.282  45.435  0.00  0.00    +0.000 OA
ATOM     31  OXT UNL     1      23.997  36.640  46.843  0.00  0.00    +0.000 OA
ENDBRANCH   2  29
TORSDOF 7
ENDMDL
MODEL 5
REMARK VINA RESULT:      -6.4      2.914      8.145
REMARK  Name = 319869
REMARK  7 active torsions:
REMARK  status: ('A' for Active; 'I' for Inactive)
REMARK    1  A    between atoms: C_3  and  O_5
REMARK    2  A    between atoms: O_5  and  C_8
REMARK    3  A    between atoms: C_14  and  C_15
REMARK    4  A    between atoms: CA_16  and  N_17
REMARK    5  A    between atoms: CA_16  and  C_18
REMARK    6  A    between atoms: C_19  and  C_23
REMARK    7  A    between atoms: C_24  and  O_26
REMARK                            x       y       z     vdW  Elec       q    Type
REMARK                         _______ _______ _______ _____ _____    ______ ____
ROOT
ATOM      1  C   UNL     1      23.177  39.078  44.643  0.00  0.00    +0.000 C 
ATOM      2  CA  UNL     1      23.936  39.009  45.749  0.00  0.00    +0.000 C 
ENDROOT
BRANCH   1   8
ATOM      3  C   UNL     1      19.381  40.907  44.300  0.00  0.00    +0.000 A 
ATOM      4  C   UNL     1      19.803  40.008  43.320  0.00  0.00    +0.000 A 
ATOM      5  C   UNL     1      20.300  41.406  45.228  0.00  0.00    +0.000 A 
ATOM      6  C   UNL     1      21.101  39.489  43.359  0.00  0.00    +0.000 A 
ATOM      7  C   UNL     1      21.591  40.873  45.281  0.00  0.00    +0.000 A 
ATOM      8  C   UNL     1      21.977  39.874  44.377  0.00  0.00    +0.000 A 
BRANCH   3   9
ATOM      9  O   UNL     1      18.044  41.247  44.316  0.00  0.00    +0.000 OA
BRANCH   9  12
ATOM     10 BR   UNL     1      17.081  42.976  46.680  0.00  0.00    +0.000 Br
ATOM     11  C   UNL     1      16.689  41.161  46.288  0.00  0.00    +0.000 A 
ATOM     12  C   UNL     1      17.197  40.531  45.145  0.00  0.00    +0.000 A 
ATOM     13  C   UNL     1      15.870  40.459  47.181  0.00  0.00    +0.000 A 
ATOM     14  C   UNL     1      16.794  39.215  44.864  0.00  0.00    +0.000 A 
ATOM     15  C   UNL     1      15.536  39.128  46.926  0.00  0.00    +0.000 A 
ATOM     16  C   UNL     1      15.988  38.511  45.762  0.00  0.00    +0.000 A 
ENDBRANCH   9  12
ENDBRANCH   3   9
ENDBRANCH   1   8
BRANCH   2  17
ATOM     17  N   UNL     1      23.768  39.840  46.849  0.00  0.00    +0.000 N 
ATOM     18  C   UNL     1      24.684  40.854  47.072  0.00  0.00    +0.000 C 
ATOM     19  O   UNL     1      25.589  41.135  46.295  0.00  0.00    +0.000 OA
ATOM     20  H   UNL     1      23.008  39.708  47.462  0.00  0.00    +0.000 HD
BRANCH  18  21
ATOM     21  C   UNL     1      24.562  41.631  48.327  0.00  0.00    +0.000 A 
ATOM     22  C   UNL     1      25.719  42.134  48.935  0.00  0.00    +0.000 A 
ATOM     23  C   UNL     1      23.304  41.977  48.839  0.00  0.00    +0.000 A 
ATOM     24  C   UNL     1      25.628  42.959  50.053  0.00  0.00    +0.000 A 
ATOM     25  C   UNL     1      23.214  42.829  49.943  0.00  0.00    +0.000 A 
ATOM     26  C   UNL     1      24.375  43.320  50.547  0.00  0.00    +0.000 A 
BRANCH  22  27
ATOM     27  O   UNL     1      26.979  41.867  48.472  0.00  0.00    +0.000 OA
ATOM     28  H   UNL     1      27.247  40.982  48.323  0.00  0.00    +0.000 HD
ENDBRANCH  22  27
ENDBRANCH  18  21
ENDBRANCH   2  17
BRANCH   2  29
ATOM     29  C   UNL     1      25.010  37.952  45.730  0.00  0.00    +0.000 C 
ATOM     30  O   UNL     1      24.823  36.774  45.987  0.00  0.00    +0.000 OA
ATOM     31  OXT UNL     1      26.216  38.415  45.336  0.00  0.00    +0.000 OA
ENDBRANCH   2  29
TORSDOF 7
ENDMDL
MODEL 6
REMARK VINA RESULT:      -6.4      2.311      3.698
REMARK  Name = 319869
REMARK  7 active torsions:
REMARK  status: ('A' for Active; 'I' for Inactive)
REMARK    1  A    between atoms: C_3  and  O_5
REMARK    2  A    between atoms: O_5  and  C_8
REMARK    3  A    between atoms: C_14  and  C_15
REMARK    4  A    between atoms: CA_16  and  N_17
REMARK    5  A    between atoms: CA_16  and  C_18
REMARK    6  A    between atoms: C_19  and  C_23
REMARK    7  A    between atoms: C_24  and  O_26
REMARK                            x       y       z     vdW  Elec       q    Type
REMARK                         _______ _______ _______ _____ _____    ______ ____
ROOT
ATOM      1  C   UNL     1      20.559  39.146  44.104  0.00  0.00    +0.000 C 
ATOM      2  CA  UNL     1      19.360  39.728  44.271  0.00  0.00    +0.000 C 
ENDROOT
BRANCH   1   8
ATOM      3  C   UNL     1      24.157  40.356  45.967  0.00  0.00    +0.000 A 
ATOM      4  C   UNL     1      23.222  41.318  45.585  0.00  0.00    +0.000 A 
ATOM      5  C   UNL     1      24.037  39.044  45.496  0.00  0.00    +0.000 A 
ATOM      6  C   UNL     1      22.085  40.942  44.863  0.00  0.00    +0.000 A 
ATOM      7  C   UNL     1      22.891  38.663  44.793  0.00  0.00    +0.000 A 
ATOM      8  C   UNL     1      21.888  39.602  44.519  0.00  0.00    +0.000 A 
BRANCH   3   9
ATOM      9  O   UNL     1      25.160  40.751  46.826  0.00  0.00    +0.000 OA
BRANCH   9  12
ATOM     10 BR   UNL     1      27.658  41.572  48.437  0.00  0.00    +0.000 Br
ATOM     11  C   UNL     1      25.830  41.923  48.804  0.00  0.00    +0.000 A 
ATOM     12  C   UNL     1      24.812  41.493  47.942  0.00  0.00    +0.000 A 
ATOM     13  C   UNL     1      25.519  42.632  49.971  0.00  0.00    +0.000 A 
ATOM     14  C   UNL     1      23.487  41.866  48.224  0.00  0.00    +0.000 A 
ATOM     15  C   UNL     1      24.190  42.933  50.274  0.00  0.00    +0.000 A 
ATOM     16  C   UNL     1      23.177  42.561  49.395  0.00  0.00    +0.000 A 
ENDBRANCH   9  12
ENDBRANCH   3   9
ENDBRANCH   1   8
BRANCH   2  17
ATOM     17  N   UNL     1      19.159  40.872  45.032  0.00  0.00    +0.000 N 
ATOM     18  C   UNL     1      18.284  40.821  46.104  0.00  0.00    +0.000 C 
ATOM     19  O   UNL     1      17.743  39.792  46.492  0.00  0.00    +0.000 OA
ATOM     20  H   UNL     1      19.633  41.707  44.812  0.00  0.00    +0.000 HD
BRANCH  18  21
ATOM     21  C   UNL     1      17.981  42.089  46.808  0.00  0.00    +0.000 A 
ATOM     22  C   UNL     1      18.976  42.696  47.584  0.00  0.00    +0.000 A 
ATOM     23  C   UNL     1      16.762  42.750  46.605  0.00  0.00    +0.000 A 
ATOM     24  C   UNL     1      18.757  43.941  48.167  0.00  0.00    +0.000 A 
ATOM     25  C   UNL     1      16.555  44.013  47.167  0.00  0.00    +0.000 A 
ATOM     26  C   UNL     1      17.552  44.606  47.945  0.00  0.00    +0.000 A 
BRANCH  22  27
ATOM     27  O   UNL     1      20.203  42.127  47.799  0.00  0.00    +0.000 OA
ATOM     28  H   UNL     1      20.376  41.673  48.601  0.00  0.00    +0.000 HD
ENDBRANCH  22  27
ENDBRANCH  18  21
ENDBRANCH   2  17
BRANCH   2  29
ATOM     29  C   UNL     1      18.211  39.052  43.567  0.00  0.00    +0.000 C 
ATOM     30  O   UNL     1      17.967  37.859  43.636  0.00  0.00    +0.000 OA
ATOM     31  OXT UNL     1      17.417  39.906  42.887  0.00  0.00    +0.000 OA
ENDBRANCH   2  29
TORSDOF 7
ENDMDL
MODEL 7
REMARK VINA RESULT:      -6.3      2.274      3.849
REMARK  Name = 319869
REMARK  7 active torsions:
REMARK  status: ('A' for Active; 'I' for Inactive)
REMARK    1  A    between atoms: C_3  and  O_5
REMARK    2  A    between atoms: O_5  and  C_8
REMARK    3  A    between atoms: C_14  and  C_15
REMARK    4  A    between atoms: CA_16  and  N_17
REMARK    5  A    between atoms: CA_16  and  C_18
REMARK    6  A    between atoms: C_19  and  C_23
REMARK    7  A    between atoms: C_24  and  O_26
REMARK                            x       y       z     vdW  Elec       q    Type
REMARK                         _______ _______ _______ _____ _____    ______ ____
ROOT
ATOM      1  C   UNL     1      20.406  38.807  44.072  0.00  0.00    +0.000 C 
ATOM      2  CA  UNL     1      19.184  39.142  44.516  0.00  0.00    +0.000 C 
ENDROOT
BRANCH   1   8
ATOM      3  C   UNL     1      23.933  40.457  45.721  0.00  0.00    +0.000 A 
ATOM      4  C   UNL     1      22.984  41.300  45.141  0.00  0.00    +0.000 A 
ATOM      5  C   UNL     1      23.854  39.076  45.516  0.00  0.00    +0.000 A 
ATOM      6  C   UNL     1      21.873  40.758  44.488  0.00  0.00    +0.000 A 
ATOM      7  C   UNL     1      22.734  38.532  44.882  0.00  0.00    +0.000 A 
ATOM      8  C   UNL     1      21.714  39.371  44.412  0.00  0.00    +0.000 A 
BRANCH   3   9
ATOM      9  O   UNL     1      24.908  41.041  46.503  0.00  0.00    +0.000 OA
BRANCH   9  12
ATOM     10 BR   UNL     1      27.352  41.630  48.287  0.00  0.00    +0.000 Br
ATOM     11  C   UNL     1      25.514  41.940  48.637  0.00  0.00    +0.000 A 
ATOM     12  C   UNL     1      24.524  41.632  47.695  0.00  0.00    +0.000 A 
ATOM     13  C   UNL     1      25.166  42.492  49.877  0.00  0.00    +0.000 A 
ATOM     14  C   UNL     1      23.191  41.972  47.980  0.00  0.00    +0.000 A 
ATOM     15  C   UNL     1      23.828  42.758  50.174  0.00  0.00    +0.000 A 
ATOM     16  C   UNL     1      22.844  42.509  49.222  0.00  0.00    +0.000 A 
ENDBRANCH   9  12
ENDBRANCH   3   9
ENDBRANCH   1   8
BRANCH   2  17
ATOM     17  N   UNL     1      18.961  40.054  45.539  0.00  0.00    +0.000 N 
ATOM     18  C   UNL     1      18.726  41.381  45.219  0.00  0.00    +0.000 C 
ATOM     19  O   UNL     1      18.602  41.791  44.071  0.00  0.00    +0.000 OA
ATOM     20  H   UNL     1      18.969  39.761  46.480  0.00  0.00    +0.000 HD
BRANCH  18  21
ATOM     21  C   UNL     1      18.634  42.354  46.331  0.00  0.00    +0.000 A 
ATOM     22  C   UNL     1      17.603  43.301  46.329  0.00  0.00    +0.000 A 
ATOM     23  C   UNL     1      19.483  42.257  47.443  0.00  0.00    +0.000 A 
ATOM     24  C   UNL     1      17.425  44.155  47.413  0.00  0.00    +0.000 A 
ATOM     25  C   UNL     1      19.285  43.096  48.543  0.00  0.00    +0.000 A 
ATOM     26  C   UNL     1      18.256  44.042  48.527  0.00  0.00    +0.000 A 
BRANCH  22  27
ATOM     27  O   UNL     1      16.715  43.431  45.295  0.00  0.00    +0.000 OA
ATOM     28  H   UNL     1      16.997  43.793  44.477  0.00  0.00    +0.000 HD
ENDBRANCH  22  27
ENDBRANCH  18  21
ENDBRANCH   2  17
BRANCH   2  29
ATOM     29  C   UNL     1      18.035  38.454  43.825  0.00  0.00    +0.000 C 
ATOM     30  O   UNL     1      17.854  37.247  43.824  0.00  0.00    +0.000 OA
ATOM     31  OXT UNL     1      17.165  39.308  43.244  0.00  0.00    +0.000 OA
ENDBRANCH   2  29
TORSDOF 7
ENDMDL
MODEL 8
REMARK VINA RESULT:      -6.3      1.711      2.342
REMARK  Name = 319869
REMARK  7 active torsions:
REMARK  status: ('A' for Active; 'I' for Inactive)
REMARK    1  A    between atoms: C_3  and  O_5
REMARK    2  A    between atoms: O_5  and  C_8
REMARK    3  A    between atoms: C_14  and  C_15
REMARK    4  A    between atoms: CA_16  and  N_17
REMARK    5  A    between atoms: CA_16  and  C_18
REMARK    6  A    between atoms: C_19  and  C_23
REMARK    7  A    between atoms: C_24  and  O_26
REMARK                            x       y       z     vdW  Elec       q    Type
REMARK                         _______ _______ _______ _____ _____    ______ ____
ROOT
ATOM      1  C   UNL     1      19.454  42.724  45.157  0.00  0.00    +0.000 C 
ATOM      2  CA  UNL     1      18.522  42.240  44.320  0.00  0.00    +0.000 C 
ENDROOT
BRANCH   1   8
ATOM      3  C   UNL     1      22.235  41.124  47.910  0.00  0.00    +0.000 A 
ATOM      4  C   UNL     1      21.941  40.421  46.741  0.00  0.00    +0.000 A 
ATOM      5  C   UNL     1      21.426  42.195  48.300  0.00  0.00    +0.000 A 
ATOM      6  C   UNL     1      20.938  40.880  45.883  0.00  0.00    +0.000 A 
ATOM      7  C   UNL     1      20.436  42.667  47.433  0.00  0.00    +0.000 A 
ATOM      8  C   UNL     1      20.225  42.040  46.197  0.00  0.00    +0.000 A 
BRANCH   3   9
ATOM      9  O   UNL     1      23.348  40.731  48.625  0.00  0.00    +0.000 OA
BRANCH   9  12
ATOM     10 BR   UNL     1      24.084  42.792  50.796  0.00  0.00    +0.000 Br
ATOM     11  C   UNL     1      25.028  42.331  49.216  0.00  0.00    +0.000 A 
ATOM     12  C   UNL     1      24.557  41.342  48.342  0.00  0.00    +0.000 A 
ATOM     13  C   UNL     1      26.221  43.011  48.942  0.00  0.00    +0.000 A 
ATOM     14  C   UNL     1      25.350  40.984  47.239  0.00  0.00    +0.000 A 
ATOM     15  C   UNL     1      26.962  42.694  47.803  0.00  0.00    +0.000 A 
ATOM     16  C   UNL     1      26.533  41.673  46.959  0.00  0.00    +0.000 A 
ENDBRANCH   9  12
ENDBRANCH   3   9
ENDBRANCH   1   8
BRANCH   2  17
ATOM     17  N   UNL     1      18.212  40.891  44.210  0.00  0.00    +0.000 N 
ATOM     18  C   UNL     1      17.292  40.338  45.084  0.00  0.00    +0.000 C 
ATOM     19  O   UNL     1      16.648  40.992  45.897  0.00  0.00    +0.000 OA
ATOM     20  H   UNL     1      18.642  40.336  43.519  0.00  0.00    +0.000 HD
BRANCH  18  21
ATOM     21  C   UNL     1      17.090  38.872  45.037  0.00  0.00    +0.000 A 
ATOM     22  C   UNL     1      17.937  38.089  44.243  0.00  0.00    +0.000 A 
ATOM     23  C   UNL     1      16.150  38.249  45.870  0.00  0.00    +0.000 A 
ATOM     24  C   UNL     1      17.842  36.700  44.265  0.00  0.00    +0.000 A 
ATOM     25  C   UNL     1      16.076  36.854  45.912  0.00  0.00    +0.000 A 
ATOM     26  C   UNL     1      16.922  36.082  45.111  0.00  0.00    +0.000 A 
BRANCH  22  27
ATOM     27  O   UNL     1      18.900  38.624  43.431  0.00  0.00    +0.000 OA
ATOM     28  H   UNL     1      18.853  38.500  42.503  0.00  0.00    +0.000 HD
ENDBRANCH  22  27
ENDBRANCH  18  21
ENDBRANCH   2  17
BRANCH   2  29
ATOM     29  C   UNL     1      17.810  43.271  43.482  0.00  0.00    +0.000 C 
ATOM     30  O   UNL     1      16.811  43.876  43.835  0.00  0.00    +0.000 OA
ATOM     31  OXT UNL     1      18.418  43.522  42.303  0.00  0.00    +0.000 OA
ENDBRANCH   2  29
TORSDOF 7
ENDMDL
MODEL 9
REMARK VINA RESULT:      -5.5      2.868      7.325
REMARK  Name = 319869
REMARK  7 active torsions:
REMARK  status: ('A' for Active; 'I' for Inactive)
REMARK    1  A    between atoms: C_3  and  O_5
REMARK    2  A    between atoms: O_5  and  C_8
REMARK    3  A    between atoms: C_14  and  C_15
REMARK    4  A    between atoms: CA_16  and  N_17
REMARK    5  A    between atoms: CA_16  and  C_18
REMARK    6  A    between atoms: C_19  and  C_23
REMARK    7  A    between atoms: C_24  and  O_26
REMARK                            x       y       z     vdW  Elec       q    Type
REMARK                         _______ _______ _______ _____ _____    ______ ____
ROOT
ATOM      1  C   UNL     1      22.924  38.482  44.510  0.00  0.00    +0.000 C 
ATOM      2  CA  UNL     1      23.557  38.498  45.694  0.00  0.00    +0.000 C 
ENDROOT
BRANCH   1   8
ATOM      3  C   UNL     1      19.942  41.355  43.655  0.00  0.00    +0.000 A 
ATOM      4  C   UNL     1      19.569  40.051  43.980  0.00  0.00    +0.000 A 
ATOM      5  C   UNL     1      21.276  41.640  43.345  0.00  0.00    +0.000 A 
ATOM      6  C   UNL     1      20.545  39.065  44.148  0.00  0.00    +0.000 A 
ATOM      7  C   UNL     1      22.255  40.660  43.532  0.00  0.00    +0.000 A 
ATOM      8  C   UNL     1      21.896  39.383  43.985  0.00  0.00    +0.000 A 
BRANCH   3   9
ATOM      9  O   UNL     1      18.959  42.322  43.677  0.00  0.00    +0.000 OA
BRANCH   9  12
ATOM     10 BR   UNL     1      21.067  43.557  45.559  0.00  0.00    +0.000 Br
ATOM     11  C   UNL     1      19.231  43.208  45.885  0.00  0.00    +0.000 A 
ATOM     12  C   UNL     1      18.401  42.660  44.899  0.00  0.00    +0.000 A 
ATOM     13  C   UNL     1      18.720  43.517  47.152  0.00  0.00    +0.000 A 
ATOM     14  C   UNL     1      17.031  42.512  45.175  0.00  0.00    +0.000 A 
ATOM     15  C   UNL     1      17.370  43.298  47.435  0.00  0.00    +0.000 A 
ATOM     16  C   UNL     1      16.525  42.808  46.443  0.00  0.00    +0.000 A 
ENDBRANCH   9  12
ENDBRANCH   3   9
ENDBRANCH   1   8
BRANCH   2  17
ATOM     17  N   UNL     1      23.425  39.521  46.624  0.00  0.00    +0.000 N 
ATOM     18  C   UNL     1      24.454  40.435  46.769  0.00  0.00    +0.000 C 
ATOM     19  O   UNL     1      25.446  40.462  46.051  0.00  0.00    +0.000 OA
ATOM     20  H   UNL     1      22.609  39.594  47.172  0.00  0.00    +0.000 HD
BRANCH  18  21
ATOM     21  C   UNL     1      24.347  41.427  47.864  0.00  0.00    +0.000 A 
ATOM     22  C   UNL     1      23.088  41.718  48.403  0.00  0.00    +0.000 A 
ATOM     23  C   UNL     1      25.495  41.977  48.451  0.00  0.00    +0.000 A 
ATOM     24  C   UNL     1      22.968  42.561  49.505  0.00  0.00    +0.000 A 
ATOM     25  C   UNL     1      25.375  42.799  49.574  0.00  0.00    +0.000 A 
ATOM     26  C   UNL     1      24.114  43.088  50.100  0.00  0.00    +0.000 A 
BRANCH  22  27
ATOM     27  O   UNL     1      21.926  41.193  47.906  0.00  0.00    +0.000 OA
ATOM     28  H   UNL     1      21.955  40.562  47.213  0.00  0.00    +0.000 HD
ENDBRANCH  22  27
ENDBRANCH  18  21
ENDBRANCH   2  17
BRANCH   2  29
ATOM     29  C   UNL     1      24.446  37.312  45.966  0.00  0.00    +0.000 C 
ATOM     30  O   UNL     1      24.154  36.387  46.707  0.00  0.00    +0.000 OA
ATOM     31  OXT UNL     1      25.596  37.325  45.259  0.00  0.00    +0.000 OA
ENDBRANCH   2  29
TORSDOF 7
ENDMDL
