MODEL 1
REMARK VINA RESULT:      -6.6      0.000      0.000
REMARK  Name = 323273
REMARK  9 active torsions:
REMARK  status: ('A' for Active; 'I' for Inactive)
REMARK    1  A    between atoms: C_3  and  O_5
REMARK    2  A    between atoms: O_5  and  C_8
REMARK    3  A    between atoms: C_14  and  C_15
REMARK    4  A    between atoms: C_16  and  N_17
REMARK    5  A    between atoms: C_16  and  C_18
REMARK    6  A    between atoms: C_19  and  C_23
REMARK    7  A    between atoms: N_21  and  CA_24
REMARK    8  A    between atoms: CA_24  and  C_27
REMARK    9  A    between atoms: C_27  and  O_30
REMARK                            x       y       z     vdW  Elec       q    Type
REMARK                         _______ _______ _______ _____ _____    ______ ____
ROOT
ATOM      1  C   UNK A   1      20.144  42.288  43.472  0.00  0.00    +0.000 C 
ATOM      2  C   UNK A   1      18.897  41.819  43.273  0.00  0.00    +0.000 C 
ENDROOT
BRANCH   1   8
ATOM      3  C   UNK A   1      22.423  41.250  46.918  0.00  0.00    +0.000 A 
ATOM      4  C   UNK A   1      21.721  42.454  46.895  0.00  0.00    +0.000 A 
ATOM      5  C   UNK A   1      22.583  40.525  45.732  0.00  0.00    +0.000 A 
ATOM      6  C   UNK A   1      21.053  42.852  45.730  0.00  0.00    +0.000 A 
ATOM      7  C   UNK A   1      21.897  40.911  44.575  0.00  0.00    +0.000 A 
ATOM      8  C   UNK A   1      21.090  42.053  44.579  0.00  0.00    +0.000 A 
BRANCH   3   9
ATOM      9  O   UNK A   1      22.917  40.812  48.129  0.00  0.00    +0.000 OA
BRANCH   9  12
ATOM     10 BR   UNK A   1      25.688  40.635  46.753  0.00  0.00    +0.000 Br
ATOM     11  C   UNK A   1      25.178  41.604  48.303  0.00  0.00    +0.000 A 
ATOM     12  C   UNK A   1      23.859  41.601  48.773  0.00  0.00    +0.000 A 
ATOM     13  C   UNK A   1      26.168  42.335  48.974  0.00  0.00    +0.000 A 
ATOM     14  C   UNK A   1      23.532  42.422  49.865  0.00  0.00    +0.000 A 
ATOM     15  C   UNK A   1      25.841  43.085  50.104  0.00  0.00    +0.000 A 
ATOM     16  C   UNK A   1      24.521  43.139  50.541  0.00  0.00    +0.000 A 
ENDBRANCH   9  12
ENDBRANCH   3   9
ENDBRANCH   1   8
BRANCH   2  17
ATOM     17  N   UNK A   1      18.260  40.875  44.062  0.00  0.00    +0.000 N 
ATOM     18  C   UNK A   0      18.581  39.529  43.973  0.00  0.00    +0.000 C 
ATOM     19  O   UNK A   0      19.334  39.058  43.129  0.00  0.00    +0.000 OA
ATOM     20  H   UNK A   1      17.567  41.164  44.699  0.00  0.00    +0.000 HD
BRANCH  18  21
ATOM     21  C   UNK A   0      17.864  38.599  44.886  0.00  0.00    +0.000 A 
ATOM     22  C   UNK A   0      17.177  39.168  45.967  0.00  0.00    +0.000 A 
ATOM     23  C   UNK A   0      17.774  37.222  44.652  0.00  0.00    +0.000 A 
ATOM     24  C   UNK A   0      16.385  38.377  46.797  0.00  0.00    +0.000 A 
ATOM     25  C   UNK A   0      16.970  36.433  45.484  0.00  0.00    +0.000 A 
ATOM     26  C   UNK A   0      16.271  37.012  46.547  0.00  0.00    +0.000 A 
ENDBRANCH  18  21
ENDBRANCH   2  17
BRANCH   2  27
ATOM     27  C   UNK A   1      18.148  42.406  42.094  0.00  0.00    +0.000 C 
ATOM     28  O   UNK A   1      18.323  43.555  41.703  0.00  0.00    +0.000 OA
ATOM     29  N   GLY A   2      17.283  41.526  41.479  0.00  0.00    +0.000 N 
ATOM     30  H   GLY A   2      17.177  40.620  41.850  0.00  0.00    +0.000 HD
BRANCH  29  31
ATOM     31  CA  GLY A   2      16.523  41.903  40.292  0.00  0.00    +0.000 C 
BRANCH  31  32
ATOM     32  C   GLY A   2      15.138  41.259  40.241  0.00  0.00    +0.000 C 
BRANCH  32  33
ATOM     33  O   GLY A   2      14.821  40.882  38.901  0.00  0.00    +0.000 OA
ATOM     34  H   GLY A   2      15.037  39.946  38.769  0.00  0.00    +0.000 HD
ENDBRANCH  32  33
ENDBRANCH  31  32
ENDBRANCH  29  31
ENDBRANCH   2  27
TORSDOF 9
ENDMDL
MODEL 2
REMARK VINA RESULT:      -5.7      3.236      8.240
REMARK  Name = 323273
REMARK  9 active torsions:
REMARK  status: ('A' for Active; 'I' for Inactive)
REMARK    1  A    between atoms: C_3  and  O_5
REMARK    2  A    between atoms: O_5  and  C_8
REMARK    3  A    between atoms: C_14  and  C_15
REMARK    4  A    between atoms: C_16  and  N_17
REMARK    5  A    between atoms: C_16  and  C_18
REMARK    6  A    between atoms: C_19  and  C_23
REMARK    7  A    between atoms: N_21  and  CA_24
REMARK    8  A    between atoms: CA_24  and  C_27
REMARK    9  A    between atoms: C_27  and  O_30
REMARK                            x       y       z     vdW  Elec       q    Type
REMARK                         _______ _______ _______ _____ _____    ______ ____
ROOT
ATOM      1  C   UNK A   1      23.616  40.648  45.449  0.00  0.00    +0.000 C 
ATOM      2  C   UNK A   1      23.562  41.562  46.437  0.00  0.00    +0.000 C 
ENDROOT
BRANCH   1   8
ATOM      3  C   UNK A   1      20.159  39.262  43.383  0.00  0.00    +0.000 A 
ATOM      4  C   UNK A   1      20.988  38.346  44.027  0.00  0.00    +0.000 A 
ATOM      5  C   UNK A   1      20.599  40.578  43.202  0.00  0.00    +0.000 A 
ATOM      6  C   UNK A   1      22.181  38.779  44.622  0.00  0.00    +0.000 A 
ATOM      7  C   UNK A   1      21.778  41.015  43.814  0.00  0.00    +0.000 A 
ATOM      8  C   UNK A   1      22.554  40.129  44.568  0.00  0.00    +0.000 A 
BRANCH   3   9
ATOM      9  O   UNK A   1      18.917  38.829  42.967  0.00  0.00    +0.000 OA
BRANCH   9  12
ATOM     10 BR   UNK A   1      17.079  41.217  43.688  0.00  0.00    +0.000 Br
ATOM     11  C   UNK A   1      17.104  39.461  44.409  0.00  0.00    +0.000 A 
ATOM     12  C   UNK A   1      17.988  38.483  43.936  0.00  0.00    +0.000 A 
ATOM     13  C   UNK A   1      16.200  39.162  45.438  0.00  0.00    +0.000 A 
ATOM     14  C   UNK A   1      17.881  37.178  44.443  0.00  0.00    +0.000 A 
ATOM     15  C   UNK A   1      16.159  37.879  45.985  0.00  0.00    +0.000 A 
ATOM     16  C   UNK A   1      16.990  36.884  45.478  0.00  0.00    +0.000 A 
ENDBRANCH   9  12
ENDBRANCH   3   9
ENDBRANCH   1   8
BRANCH   2  17
ATOM     17  N   UNK A   1      22.452  42.323  46.767  0.00  0.00    +0.000 N 
ATOM     18  C   UNK A   0      21.277  41.730  47.199  0.00  0.00    +0.000 C 
ATOM     19  O   UNK A   0      21.080  40.521  47.203  0.00  0.00    +0.000 OA
ATOM     20  H   UNK A   1      22.499  43.304  46.693  0.00  0.00    +0.000 HD
BRANCH  18  21
ATOM     21  C   UNK A   0      20.153  42.635  47.560  0.00  0.00    +0.000 A 
ATOM     22  C   UNK A   0      19.479  43.268  46.506  0.00  0.00    +0.000 A 
ATOM     23  C   UNK A   0      19.697  42.797  48.873  0.00  0.00    +0.000 A 
ATOM     24  C   UNK A   0      18.343  44.036  46.753  0.00  0.00    +0.000 A 
ATOM     25  C   UNK A   0      18.550  43.564  49.115  0.00  0.00    +0.000 A 
ATOM     26  C   UNK A   0      17.872  44.173  48.056  0.00  0.00    +0.000 A 
ENDBRANCH  18  21
ENDBRANCH   2  17
BRANCH   2  27
ATOM     27  C   UNK A   1      24.830  41.734  47.251  0.00  0.00    +0.000 C 
ATOM     28  O   UNK A   1      25.943  41.478  46.806  0.00  0.00    +0.000 OA
ATOM     29  N   GLY A   2      24.624  42.237  48.518  0.00  0.00    +0.000 N 
ATOM     30  H   GLY A   2      23.703  42.409  48.822  0.00  0.00    +0.000 HD
BRANCH  29  31
ATOM     31  CA  GLY A   2      25.735  42.522  49.419  0.00  0.00    +0.000 C 
BRANCH  31  32
ATOM     32  C   GLY A   2      25.290  43.169  50.730  0.00  0.00    +0.000 C 
BRANCH  32  33
ATOM     33  O   GLY A   2      23.972  42.736  51.069  0.00  0.00    +0.000 OA
ATOM     34  H   GLY A   2      23.617  43.303  51.770  0.00  0.00    +0.000 HD
ENDBRANCH  32  33
ENDBRANCH  31  32
ENDBRANCH  29  31
ENDBRANCH   2  27
TORSDOF 9
ENDMDL
MODEL 3
REMARK VINA RESULT:      -5.3      2.662      4.410
REMARK  Name = 323273
REMARK  9 active torsions:
REMARK  status: ('A' for Active; 'I' for Inactive)
REMARK    1  A    between atoms: C_3  and  O_5
REMARK    2  A    between atoms: O_5  and  C_8
REMARK    3  A    between atoms: C_14  and  C_15
REMARK    4  A    between atoms: C_16  and  N_17
REMARK    5  A    between atoms: C_16  and  C_18
REMARK    6  A    between atoms: C_19  and  C_23
REMARK    7  A    between atoms: N_21  and  CA_24
REMARK    8  A    between atoms: CA_24  and  C_27
REMARK    9  A    between atoms: C_27  and  O_30
REMARK                            x       y       z     vdW  Elec       q    Type
REMARK                         _______ _______ _______ _____ _____    ______ ____
ROOT
ATOM      1  C   UNK A   1      20.614  39.096  44.295  0.00  0.00    +0.000 C 
ATOM      2  C   UNK A   1      19.370  39.569  44.505  0.00  0.00    +0.000 C 
ENDROOT
BRANCH   1   8
ATOM      3  C   UNK A   1      24.375  40.579  45.635  0.00  0.00    +0.000 A 
ATOM      4  C   UNK A   1      23.239  41.378  45.755  0.00  0.00    +0.000 A 
ATOM      5  C   UNK A   1      24.321  39.420  44.854  0.00  0.00    +0.000 A 
ATOM      6  C   UNK A   1      22.018  40.941  45.224  0.00  0.00    +0.000 A 
ATOM      7  C   UNK A   1      23.097  38.972  44.345  0.00  0.00    +0.000 A 
ATOM      8  C   UNK A   1      21.928  39.707  44.566  0.00  0.00    +0.000 A 
BRANCH   3   9
ATOM      9  O   UNK A   1      25.510  40.963  46.320  0.00  0.00    +0.000 OA
BRANCH   9  12
ATOM     10 BR   UNK A   1      23.640  39.357  48.198  0.00  0.00    +0.000 Br
ATOM     11  C   UNK A   1      24.501  41.021  48.499  0.00  0.00    +0.000 A 
ATOM     12  C   UNK A   1      25.351  41.594  47.544  0.00  0.00    +0.000 A 
ATOM     13  C   UNK A   1      24.265  41.670  49.719  0.00  0.00    +0.000 A 
ATOM     14  C   UNK A   1      26.035  42.775  47.876  0.00  0.00    +0.000 A 
ATOM     15  C   UNK A   1      24.893  42.883  50.001  0.00  0.00    +0.000 A 
ATOM     16  C   UNK A   1      25.788  43.428  49.085  0.00  0.00    +0.000 A 
ENDBRANCH   9  12
ENDBRANCH   3   9
ENDBRANCH   1   8
BRANCH   2  17
ATOM     17  N   UNK A   1      19.062  40.750  45.160  0.00  0.00    +0.000 N 
ATOM     18  C   UNK A   0      18.235  40.760  46.273  0.00  0.00    +0.000 C 
ATOM     19  O   UNK A   0      17.623  39.781  46.681  0.00  0.00    +0.000 OA
ATOM     20  H   UNK A   1      19.437  41.599  44.830  0.00  0.00    +0.000 HD
BRANCH  18  21
ATOM     21  C   UNK A   0      17.991  42.075  46.925  0.00  0.00    +0.000 A 
ATOM     22  C   UNK A   0      18.991  42.561  47.778  0.00  0.00    +0.000 A 
ATOM     23  C   UNK A   0      16.870  42.866  46.647  0.00  0.00    +0.000 A 
ATOM     24  C   UNK A   0      18.891  43.835  48.332  0.00  0.00    +0.000 A 
ATOM     25  C   UNK A   0      16.778  44.149  47.199  0.00  0.00    +0.000 A 
ATOM     26  C   UNK A   0      17.790  44.634  48.032  0.00  0.00    +0.000 A 
ENDBRANCH  18  21
ENDBRANCH   2  17
BRANCH   2  27
ATOM     27  C   UNK A   1      18.238  38.729  43.949  0.00  0.00    +0.000 C 
ATOM     28  O   UNK A   1      17.401  39.176  43.172  0.00  0.00    +0.000 OA
ATOM     29  N   GLY A   2      18.255  37.414  44.361  0.00  0.00    +0.000 N 
ATOM     30  H   GLY A   2      18.946  37.120  44.998  0.00  0.00    +0.000 HD
BRANCH  29  31
ATOM     31  CA  GLY A   2      17.275  36.446  43.879  0.00  0.00    +0.000 C 
BRANCH  31  32
ATOM     32  C   GLY A   2      16.535  35.731  45.008  0.00  0.00    +0.000 C 
BRANCH  32  33
ATOM     33  O   GLY A   2      17.422  35.492  46.102  0.00  0.00    +0.000 OA
ATOM     34  H   GLY A   2      17.130  36.004  46.872  0.00  0.00    +0.000 HD
ENDBRANCH  32  33
ENDBRANCH  31  32
ENDBRANCH  29  31
ENDBRANCH   2  27
TORSDOF 9
ENDMDL
MODEL 4
REMARK VINA RESULT:      -5.2      2.191      3.750
REMARK  Name = 323273
REMARK  9 active torsions:
REMARK  status: ('A' for Active; 'I' for Inactive)
REMARK    1  A    between atoms: C_3  and  O_5
REMARK    2  A    between atoms: O_5  and  C_8
REMARK    3  A    between atoms: C_14  and  C_15
REMARK    4  A    between atoms: C_16  and  N_17
REMARK    5  A    between atoms: C_16  and  C_18
REMARK    6  A    between atoms: C_19  and  C_23
REMARK    7  A    between atoms: N_21  and  CA_24
REMARK    8  A    between atoms: CA_24  and  C_27
REMARK    9  A    between atoms: C_27  and  O_30
REMARK                            x       y       z     vdW  Elec       q    Type
REMARK                         _______ _______ _______ _____ _____    ______ ____
ROOT
ATOM      1  C   UNK A   1      20.847  39.272  43.865  0.00  0.00    +0.000 C 
ATOM      2  C   UNK A   1      19.673  39.735  44.339  0.00  0.00    +0.000 C 
ENDROOT
BRANCH   1   8
ATOM      3  C   UNK A   1      24.613  40.094  45.676  0.00  0.00    +0.000 A 
ATOM      4  C   UNK A   1      23.843  41.147  45.184  0.00  0.00    +0.000 A 
ATOM      5  C   UNK A   1      24.270  38.779  45.346  0.00  0.00    +0.000 A 
ATOM      6  C   UNK A   1      22.652  40.879  44.496  0.00  0.00    +0.000 A 
ATOM      7  C   UNK A   1      23.070  38.511  44.679  0.00  0.00    +0.000 A 
ATOM      8  C   UNK A   1      22.229  39.559  44.290  0.00  0.00    +0.000 A 
BRANCH   3   9
ATOM      9  O   UNK A   1      25.680  40.401  46.495  0.00  0.00    +0.000 OA
BRANCH   9  12
ATOM     10 BR   UNK A   1      23.406  39.311  48.295  0.00  0.00    +0.000 Br
ATOM     11  C   UNK A   1      24.423  40.903  48.479  0.00  0.00    +0.000 A 
ATOM     12  C   UNK A   1      25.449  41.229  47.584  0.00  0.00    +0.000 A 
ATOM     13  C   UNK A   1      24.119  41.755  49.550  0.00  0.00    +0.000 A 
ATOM     14  C   UNK A   1      26.228  42.369  47.840  0.00  0.00    +0.000 A 
ATOM     15  C   UNK A   1      24.853  42.925  49.745  0.00  0.00    +0.000 A 
ATOM     16  C   UNK A   1      25.916  43.225  48.898  0.00  0.00    +0.000 A 
ENDBRANCH   9  12
ENDBRANCH   3   9
ENDBRANCH   1   8
BRANCH   2  17
ATOM     17  N   UNK A   1      19.520  40.533  45.461  0.00  0.00    +0.000 N 
ATOM     18  C   UNK A   0      19.281  41.894  45.349  0.00  0.00    +0.000 C 
ATOM     19  O   UNK A   0      19.314  42.510  44.291  0.00  0.00    +0.000 OA
ATOM     20  H   UNK A   1      19.582  40.126  46.356  0.00  0.00    +0.000 HD
BRANCH  18  21
ATOM     21  C   UNK A   0      19.099  42.657  46.613  0.00  0.00    +0.000 A 
ATOM     22  C   UNK A   0      18.138  43.677  46.610  0.00  0.00    +0.000 A 
ATOM     23  C   UNK A   0      19.770  42.336  47.799  0.00  0.00    +0.000 A 
ATOM     24  C   UNK A   0      17.825  44.357  47.785  0.00  0.00    +0.000 A 
ATOM     25  C   UNK A   0      19.446  43.017  48.979  0.00  0.00    +0.000 A 
ATOM     26  C   UNK A   0      18.470  44.017  48.972  0.00  0.00    +0.000 A 
ENDBRANCH  18  21
ENDBRANCH   2  17
BRANCH   2  27
ATOM     27  C   UNK A   1      18.440  39.350  43.546  0.00  0.00    +0.000 C 
ATOM     28  O   UNK A   1      18.137  38.185  43.315  0.00  0.00    +0.000 OA
ATOM     29  N   GLY A   2      17.672  40.421  43.142  0.00  0.00    +0.000 N 
ATOM     30  H   GLY A   2      17.977  41.335  43.347  0.00  0.00    +0.000 HD
BRANCH  29  31
ATOM     31  CA  GLY A   2      16.418  40.236  42.419  0.00  0.00    +0.000 C 
BRANCH  31  32
ATOM     32  C   GLY A   2      16.124  41.366  41.433  0.00  0.00    +0.000 C 
BRANCH  32  33
ATOM     33  O   GLY A   2      15.041  41.000  40.576  0.00  0.00    +0.000 OA
ATOM     34  H   GLY A   2      14.214  41.360  40.930  0.00  0.00    +0.000 HD
ENDBRANCH  32  33
ENDBRANCH  31  32
ENDBRANCH  29  31
ENDBRANCH   2  27
TORSDOF 9
ENDMDL
MODEL 5
REMARK VINA RESULT:      -4.2      1.396      2.088
REMARK  Name = 323273
REMARK  9 active torsions:
REMARK  status: ('A' for Active; 'I' for Inactive)
REMARK    1  A    between atoms: C_3  and  O_5
REMARK    2  A    between atoms: O_5  and  C_8
REMARK    3  A    between atoms: C_14  and  C_15
REMARK    4  A    between atoms: C_16  and  N_17
REMARK    5  A    between atoms: C_16  and  C_18
REMARK    6  A    between atoms: C_19  and  C_23
REMARK    7  A    between atoms: N_21  and  CA_24
REMARK    8  A    between atoms: CA_24  and  C_27
REMARK    9  A    between atoms: C_27  and  O_30
REMARK                            x       y       z     vdW  Elec       q    Type
REMARK                         _______ _______ _______ _____ _____    ______ ____
ROOT
ATOM      1  C   UNK A   1      20.362  41.759  43.086  0.00  0.00    +0.000 C 
ATOM      2  C   UNK A   1      19.052  41.452  43.031  0.00  0.00    +0.000 C 
ENDROOT
BRANCH   1   8
ATOM      3  C   UNK A   1      23.752  40.904  45.519  0.00  0.00    +0.000 A 
ATOM      4  C   UNK A   1      23.488  40.110  44.405  0.00  0.00    +0.000 A 
ATOM      5  C   UNK A   1      22.776  41.799  45.972  0.00  0.00    +0.000 A 
ATOM      6  C   UNK A   1      22.321  40.319  43.658  0.00  0.00    +0.000 A 
ATOM      7  C   UNK A   1      21.622  42.023  45.214  0.00  0.00    +0.000 A 
ATOM      8  C   UNK A   1      21.409  41.317  44.026  0.00  0.00    +0.000 A 
BRANCH   3   9
ATOM      9  O   UNK A   1      24.988  40.785  46.121  0.00  0.00    +0.000 OA
BRANCH   9  12
ATOM     10 BR   UNK A   1      23.441  39.434  48.441  0.00  0.00    +0.000 Br
ATOM     11  C   UNK A   1      24.533  40.986  48.470  0.00  0.00    +0.000 A 
ATOM     12  C   UNK A   1      25.195  41.444  47.323  0.00  0.00    +0.000 A 
ATOM     13  C   UNK A   1      24.666  41.671  49.686  0.00  0.00    +0.000 A 
ATOM     14  C   UNK A   1      26.067  42.537  47.442  0.00  0.00    +0.000 A 
ATOM     15  C   UNK A   1      25.477  42.804  49.768  0.00  0.00    +0.000 A 
ATOM     16  C   UNK A   1      26.188  43.228  48.650  0.00  0.00    +0.000 A 
ENDBRANCH   9  12
ENDBRANCH   3   9
ENDBRANCH   1   8
BRANCH   2  17
ATOM     17  N   UNK A   1      18.412  40.516  43.827  0.00  0.00    +0.000 N 
ATOM     18  C   UNK A   0      17.672  40.899  44.935  0.00  0.00    +0.000 C 
ATOM     19  O   UNK A   0      17.629  42.044  45.367  0.00  0.00    +0.000 OA
ATOM     20  H   UNK A   1      18.484  39.560  43.602  0.00  0.00    +0.000 HD
BRANCH  18  21
ATOM     21  C   UNK A   0      16.998  39.820  45.706  0.00  0.00    +0.000 A 
ATOM     22  C   UNK A   0      17.002  38.536  45.145  0.00  0.00    +0.000 A 
ATOM     23  C   UNK A   0      16.459  40.020  46.982  0.00  0.00    +0.000 A 
ATOM     24  C   UNK A   0      16.496  37.451  45.858  0.00  0.00    +0.000 A 
ATOM     25  C   UNK A   0      15.960  38.925  47.698  0.00  0.00    +0.000 A 
ATOM     26  C   UNK A   0      15.987  37.644  47.140  0.00  0.00    +0.000 A 
ENDBRANCH  18  21
ENDBRANCH   2  17
BRANCH   2  27
ATOM     27  C   UNK A   1      18.232  42.227  42.019  0.00  0.00    +0.000 C 
ATOM     28  O   UNK A   1      18.392  43.426  41.813  0.00  0.00    +0.000 OA
ATOM     29  N   GLY A   2      17.319  41.462  41.326  0.00  0.00    +0.000 N 
ATOM     30  H   GLY A   2      17.227  40.506  41.548  0.00  0.00    +0.000 HD
BRANCH  29  31
ATOM     31  CA  GLY A   2      16.485  42.029  40.271  0.00  0.00    +0.000 C 
BRANCH  31  32
ATOM     32  C   GLY A   2      15.126  41.341  40.148  0.00  0.00    +0.000 C 
BRANCH  32  33
ATOM     33  O   GLY A   2      14.916  40.907  38.804  0.00  0.00    +0.000 OA
ATOM     34  H   GLY A   2      14.075  40.428  38.748  0.00  0.00    +0.000 HD
ENDBRANCH  32  33
ENDBRANCH  31  32
ENDBRANCH  29  31
ENDBRANCH   2  27
TORSDOF 9
ENDMDL
