MODEL 1
REMARK VINA RESULT:      -5.7      0.000      0.000
REMARK  Name = 323372
REMARK  8 active torsions:
REMARK  status: ('A' for Active; 'I' for Inactive)
REMARK    1  A    between atoms: C_3  and  O_5
REMARK    2  A    between atoms: O_5  and  C_8
REMARK    3  A    between atoms: C_14  and  C_15
REMARK    4  A    between atoms: C_16  and  N_17
REMARK    5  A    between atoms: C_16  and  C_18
REMARK    6  A    between atoms: C_19  and  C_23
REMARK    7  A    between atoms: N_21  and  CA_24
REMARK    8  A    between atoms: CA_24  and  C_27
REMARK                            x       y       z     vdW  Elec       q    Type
REMARK                         _______ _______ _______ _____ _____    ______ ____
ROOT
ATOM      1  C   UNK A   1      20.323  42.371  43.498  0.00  0.00    +0.000 C 
ATOM      2  C   UNK A   1      19.060  41.947  43.298  0.00  0.00    +0.000 C 
ENDROOT
BRANCH   1   8
ATOM      3  C   UNK A   1      22.553  41.243  46.942  0.00  0.00    +0.000 A 
ATOM      4  C   UNK A   1      21.895  42.472  46.926  0.00  0.00    +0.000 A 
ATOM      5  C   UNK A   1      22.691  40.518  45.755  0.00  0.00    +0.000 A 
ATOM      6  C   UNK A   1      21.244  42.900  45.761  0.00  0.00    +0.000 A 
ATOM      7  C   UNK A   1      22.023  40.936  44.599  0.00  0.00    +0.000 A 
ATOM      8  C   UNK A   1      21.256  42.108  44.607  0.00  0.00    +0.000 A 
BRANCH   3   9
ATOM      9  O   UNK A   1      23.025  40.781  48.155  0.00  0.00    +0.000 OA
BRANCH   9  12
ATOM     10 BR   UNK A   1      25.838  40.663  46.867  0.00  0.00    +0.000 Br
ATOM     11  C   UNK A   1      25.265  41.603  48.412  0.00  0.00    +0.000 A 
ATOM     12  C   UNK A   1      23.932  41.576  48.841  0.00  0.00    +0.000 A 
ATOM     13  C   UNK A   1      26.221  42.342  49.122  0.00  0.00    +0.000 A 
ATOM     14  C   UNK A   1      23.558  42.375  49.932  0.00  0.00    +0.000 A 
ATOM     15  C   UNK A   1      25.850  43.071  50.251  0.00  0.00    +0.000 A 
ATOM     16  C   UNK A   1      24.515  43.099  50.648  0.00  0.00    +0.000 A 
ENDBRANCH   9  12
ENDBRANCH   3   9
ENDBRANCH   1   8
BRANCH   2  17
ATOM     17  N   UNK A   1      18.382  41.021  44.073  0.00  0.00    +0.000 N 
ATOM     18  C   UNK A   0      18.666  39.665  43.992  0.00  0.00    +0.000 C 
ATOM     19  O   UNK A   0      19.434  39.170  43.179  0.00  0.00    +0.000 OA
ATOM     20  H   UNK A   1      17.686  41.332  44.696  0.00  0.00    +0.000 HD
BRANCH  18  21
ATOM     21  C   UNK A   0      17.891  38.761  44.880  0.00  0.00    +0.000 A 
ATOM     22  C   UNK A   0      17.156  39.352  45.918  0.00  0.00    +0.000 A 
ATOM     23  C   UNK A   0      17.795  37.386  44.651  0.00  0.00    +0.000 A 
ATOM     24  C   UNK A   0      16.308  38.578  46.707  0.00  0.00    +0.000 A 
ATOM     25  C   UNK A   0      16.936  36.615  45.442  0.00  0.00    +0.000 A 
ATOM     26  C   UNK A   0      16.189  37.211  46.460  0.00  0.00    +0.000 A 
ENDBRANCH  18  21
ENDBRANCH   2  17
BRANCH   2  27
ATOM     27  C   UNK A   1      18.328  42.576  42.132  0.00  0.00    +0.000 C 
ATOM     28  O   UNK A   1      18.503  43.737  41.775  0.00  0.00    +0.000 OA
ATOM     29  N   GLY A   2      17.475  41.723  41.474  0.00  0.00    +0.000 N 
ATOM     30  H   GLY A   2      17.294  40.829  41.846  0.00  0.00    +0.000 HD
BRANCH  29  31
ATOM     31  CA  GLY A   2      16.837  42.132  40.233  0.00  0.00    +0.000 C 
BRANCH  31  32
ATOM     32  C   GLY A   2      15.526  41.388  40.033  0.00  0.00    +0.000 C 
ATOM     33  O   GLY A   2      14.835  40.963  40.949  0.00  0.00    +0.000 OA
ATOM     34  OXT GLY A   2      15.187  41.221  38.732  0.00  0.00    +0.000 OA
ENDBRANCH  31  32
ENDBRANCH  29  31
ENDBRANCH   2  27
TORSDOF 8
ENDMDL
MODEL 2
REMARK VINA RESULT:      -4.6      2.730      4.399
REMARK  Name = 323372
REMARK  8 active torsions:
REMARK  status: ('A' for Active; 'I' for Inactive)
REMARK    1  A    between atoms: C_3  and  O_5
REMARK    2  A    between atoms: O_5  and  C_8
REMARK    3  A    between atoms: C_14  and  C_15
REMARK    4  A    between atoms: C_16  and  N_17
REMARK    5  A    between atoms: C_16  and  C_18
REMARK    6  A    between atoms: C_19  and  C_23
REMARK    7  A    between atoms: N_21  and  CA_24
REMARK    8  A    between atoms: CA_24  and  C_27
REMARK                            x       y       z     vdW  Elec       q    Type
REMARK                         _______ _______ _______ _____ _____    ______ ____
ROOT
ATOM      1  C   UNK A   1      20.939  39.195  44.346  0.00  0.00    +0.000 C 
ATOM      2  C   UNK A   1      19.689  39.665  44.525  0.00  0.00    +0.000 C 
ENDROOT
BRANCH   1   8
ATOM      3  C   UNK A   1      24.615  40.666  45.905  0.00  0.00    +0.000 A 
ATOM      4  C   UNK A   1      23.510  41.513  45.849  0.00  0.00    +0.000 A 
ATOM      5  C   UNK A   1      24.586  39.446  45.224  0.00  0.00    +0.000 A 
ATOM      6  C   UNK A   1      22.324  41.074  45.244  0.00  0.00    +0.000 A 
ATOM      7  C   UNK A   1      23.396  39.000  44.639  0.00  0.00    +0.000 A 
ATOM      8  C   UNK A   1      22.242  39.793  44.685  0.00  0.00    +0.000 A 
BRANCH   3   9
ATOM      9  O   UNK A   1      25.697  41.069  46.663  0.00  0.00    +0.000 OA
BRANCH   9  12
ATOM     10 BR   UNK A   1      23.676  39.474  48.383  0.00  0.00    +0.000 Br
ATOM     11  C   UNK A   1      24.514  41.135  48.751  0.00  0.00    +0.000 A 
ATOM     12  C   UNK A   1      25.441  41.706  47.870  0.00  0.00    +0.000 A 
ATOM     13  C   UNK A   1      24.182  41.786  49.947  0.00  0.00    +0.000 A 
ATOM     14  C   UNK A   1      26.097  42.885  48.252  0.00  0.00    +0.000 A 
ATOM     15  C   UNK A   1      24.787  42.998  50.279  0.00  0.00    +0.000 A 
ATOM     16  C   UNK A   1      25.755  43.541  49.438  0.00  0.00    +0.000 A 
ENDBRANCH   9  12
ENDBRANCH   3   9
ENDBRANCH   1   8
BRANCH   2  17
ATOM     17  N   UNK A   1      19.344  40.814  45.218  0.00  0.00    +0.000 N 
ATOM     18  C   UNK A   0      18.363  40.799  46.200  0.00  0.00    +0.000 C 
ATOM     19  O   UNK A   0      17.661  39.830  46.456  0.00  0.00    +0.000 OA
ATOM     20  H   UNK A   1      19.805  41.658  45.011  0.00  0.00    +0.000 HD
BRANCH  18  21
ATOM     21  C   UNK A   0      18.084  42.083  46.892  0.00  0.00    +0.000 A 
ATOM     22  C   UNK A   0      19.053  42.555  47.788  0.00  0.00    +0.000 A 
ATOM     23  C   UNK A   0      16.961  42.862  46.603  0.00  0.00    +0.000 A 
ATOM     24  C   UNK A   0      18.915  43.812  48.374  0.00  0.00    +0.000 A 
ATOM     25  C   UNK A   0      16.831  44.126  47.188  0.00  0.00    +0.000 A 
ATOM     26  C   UNK A   0      17.809  44.602  48.063  0.00  0.00    +0.000 A 
ENDBRANCH  18  21
ENDBRANCH   2  17
BRANCH   2  27
ATOM     27  C   UNK A   1      18.582  38.863  43.875  0.00  0.00    +0.000 C 
ATOM     28  O   UNK A   1      17.871  39.302  42.977  0.00  0.00    +0.000 OA
ATOM     29  N   GLY A   2      18.464  37.577  44.347  0.00  0.00    +0.000 N 
ATOM     30  H   GLY A   2      18.992  37.293  45.129  0.00  0.00    +0.000 HD
BRANCH  29  31
ATOM     31  CA  GLY A   2      17.565  36.635  43.701  0.00  0.00    +0.000 C 
BRANCH  31  32
ATOM     32  C   GLY A   2      16.634  35.997  44.720  0.00  0.00    +0.000 C 
ATOM     33  O   GLY A   2      16.324  34.814  44.715  0.00  0.00    +0.000 OA
ATOM     34  OXT GLY A   2      16.158  36.867  45.642  0.00  0.00    +0.000 OA
ENDBRANCH  31  32
ENDBRANCH  29  31
ENDBRANCH   2  27
TORSDOF 8
ENDMDL
MODEL 3
REMARK VINA RESULT:      -4.4      2.233      3.789
REMARK  Name = 323372
REMARK  8 active torsions:
REMARK  status: ('A' for Active; 'I' for Inactive)
REMARK    1  A    between atoms: C_3  and  O_5
REMARK    2  A    between atoms: O_5  and  C_8
REMARK    3  A    between atoms: C_14  and  C_15
REMARK    4  A    between atoms: C_16  and  N_17
REMARK    5  A    between atoms: C_16  and  C_18
REMARK    6  A    between atoms: C_19  and  C_23
REMARK    7  A    between atoms: N_21  and  CA_24
REMARK    8  A    between atoms: CA_24  and  C_27
REMARK                            x       y       z     vdW  Elec       q    Type
REMARK                         _______ _______ _______ _____ _____    ______ ____
ROOT
ATOM      1  C   UNK A   1      21.155  39.049  44.086  0.00  0.00    +0.000 C 
ATOM      2  C   UNK A   1      19.958  39.502  44.507  0.00  0.00    +0.000 C 
ENDROOT
BRANCH   1   8
ATOM      3  C   UNK A   1      24.853  40.093  45.914  0.00  0.00    +0.000 A 
ATOM      4  C   UNK A   1      24.066  41.093  45.345  0.00  0.00    +0.000 A 
ATOM      5  C   UNK A   1      24.558  38.752  45.657  0.00  0.00    +0.000 A 
ATOM      6  C   UNK A   1      22.897  40.751  44.651  0.00  0.00    +0.000 A 
ATOM      7  C   UNK A   1      23.380  38.412  44.982  0.00  0.00    +0.000 A 
ATOM      8  C   UNK A   1      22.517  39.411  44.513  0.00  0.00    +0.000 A 
BRANCH   3   9
ATOM      9  O   UNK A   1      25.892  40.482  46.737  0.00  0.00    +0.000 OA
BRANCH   9  12
ATOM     10 BR   UNK A   1      23.534  39.444  48.455  0.00  0.00    +0.000 Br
ATOM     11  C   UNK A   1      24.531  41.048  48.632  0.00  0.00    +0.000 A 
ATOM     12  C   UNK A   1      25.601  41.350  47.780  0.00  0.00    +0.000 A 
ATOM     13  C   UNK A   1      24.169  41.936  49.654  0.00  0.00    +0.000 A 
ATOM     14  C   UNK A   1      26.358  42.504  48.032  0.00  0.00    +0.000 A 
ATOM     15  C   UNK A   1      24.883  43.119  49.844  0.00  0.00    +0.000 A 
ATOM     16  C   UNK A   1      25.987  43.395  49.042  0.00  0.00    +0.000 A 
ENDBRANCH   9  12
ENDBRANCH   3   9
ENDBRANCH   1   8
BRANCH   2  17
ATOM     17  N   UNK A   1      19.742  40.355  45.576  0.00  0.00    +0.000 N 
ATOM     18  C   UNK A   0      19.454  41.699  45.383  0.00  0.00    +0.000 C 
ATOM     19  O   UNK A   0      19.473  42.257  44.294  0.00  0.00    +0.000 OA
ATOM     20  H   UNK A   1      19.793  40.000  46.493  0.00  0.00    +0.000 HD
BRANCH  18  21
ATOM     21  C   UNK A   0      19.225  42.520  46.599  0.00  0.00    +0.000 A 
ATOM     22  C   UNK A   0      18.252  43.526  46.524  0.00  0.00    +0.000 A 
ATOM     23  C   UNK A   0      19.862  42.254  47.814  0.00  0.00    +0.000 A 
ATOM     24  C   UNK A   0      17.896  44.247  47.662  0.00  0.00    +0.000 A 
ATOM     25  C   UNK A   0      19.496  42.976  48.955  0.00  0.00    +0.000 A 
ATOM     26  C   UNK A   0      18.510  43.962  48.880  0.00  0.00    +0.000 A 
ENDBRANCH  18  21
ENDBRANCH   2  17
BRANCH   2  27
ATOM     27  C   UNK A   1      18.759  39.045  43.703  0.00  0.00    +0.000 C 
ATOM     28  O   UNK A   1      18.448  37.867  43.569  0.00  0.00    +0.000 OA
ATOM     29  N   GLY A   2      18.015  40.070  43.166  0.00  0.00    +0.000 N 
ATOM     30  H   GLY A   2      18.348  40.995  43.219  0.00  0.00    +0.000 HD
BRANCH  29  31
ATOM     31  CA  GLY A   2      16.743  39.794  42.519  0.00  0.00    +0.000 C 
BRANCH  31  32
ATOM     32  C   GLY A   2      16.072  41.087  42.082  0.00  0.00    +0.000 C 
ATOM     33  O   GLY A   2      15.324  41.178  41.118  0.00  0.00    +0.000 OA
ATOM     34  OXT GLY A   2      16.388  42.153  42.857  0.00  0.00    +0.000 OA
ENDBRANCH  31  32
ENDBRANCH  29  31
ENDBRANCH   2  27
TORSDOF 8
ENDMDL
MODEL 4
REMARK VINA RESULT:      -3.6      1.441      2.184
REMARK  Name = 323372
REMARK  8 active torsions:
REMARK  status: ('A' for Active; 'I' for Inactive)
REMARK    1  A    between atoms: C_3  and  O_5
REMARK    2  A    between atoms: O_5  and  C_8
REMARK    3  A    between atoms: C_14  and  C_15
REMARK    4  A    between atoms: C_16  and  N_17
REMARK    5  A    between atoms: C_16  and  C_18
REMARK    6  A    between atoms: C_19  and  C_23
REMARK    7  A    between atoms: N_21  and  CA_24
REMARK    8  A    between atoms: CA_24  and  C_27
REMARK                            x       y       z     vdW  Elec       q    Type
REMARK                         _______ _______ _______ _____ _____    ______ ____
ROOT
ATOM      1  C   UNK A   1      19.825  42.404  44.273  0.00  0.00    +0.000 C 
ATOM      2  C   UNK A   1      18.977  41.698  43.500  0.00  0.00    +0.000 C 
ENDROOT
BRANCH   1   8
ATOM      3  C   UNK A   1      22.042  41.536  47.800  0.00  0.00    +0.000 A 
ATOM      4  C   UNK A   1      21.455  40.491  47.088  0.00  0.00    +0.000 A 
ATOM      5  C   UNK A   1      21.689  42.856  47.507  0.00  0.00    +0.000 A 
ATOM      6  C   UNK A   1      20.638  40.772  45.984  0.00  0.00    +0.000 A 
ATOM      7  C   UNK A   1      20.890  43.135  46.393  0.00  0.00    +0.000 A 
ATOM      8  C   UNK A   1      20.396  42.095  45.596  0.00  0.00    +0.000 A 
BRANCH   3   9
ATOM      9  O   UNK A   1      22.978  41.212  48.763  0.00  0.00    +0.000 OA
BRANCH   9  12
ATOM     10 BR   UNK A   1      24.353  43.130  50.767  0.00  0.00    +0.000 Br
ATOM     11  C   UNK A   1      25.079  42.271  49.239  0.00  0.00    +0.000 A 
ATOM     12  C   UNK A   1      24.318  41.397  48.453  0.00  0.00    +0.000 A 
ATOM     13  C   UNK A   1      26.417  42.532  48.914  0.00  0.00    +0.000 A 
ATOM     14  C   UNK A   1      24.946  40.718  47.398  0.00  0.00    +0.000 A 
ATOM     15  C   UNK A   1      27.007  41.908  47.815  0.00  0.00    +0.000 A 
ATOM     16  C   UNK A   1      26.276  40.990  47.066  0.00  0.00    +0.000 A 
ENDBRANCH   9  12
ENDBRANCH   3   9
ENDBRANCH   1   8
BRANCH   2  17
ATOM     17  N   UNK A   1      18.542  40.406  43.742  0.00  0.00    +0.000 N 
ATOM     18  C   UNK A   0      17.575  40.136  44.701  0.00  0.00    +0.000 C 
ATOM     19  O   UNK A   0      17.116  40.972  45.469  0.00  0.00    +0.000 OA
ATOM     20  H   UNK A   1      18.926  39.663  43.223  0.00  0.00    +0.000 HD
BRANCH  18  21
ATOM     21  C   UNK A   0      17.170  38.718  44.867  0.00  0.00    +0.000 A 
ATOM     22  C   UNK A   0      17.856  37.758  44.111  0.00  0.00    +0.000 A 
ATOM     23  C   UNK A   0      16.220  38.315  45.809  0.00  0.00    +0.000 A 
ATOM     24  C   UNK A   0      17.615  36.400  44.311  0.00  0.00    +0.000 A 
ATOM     25  C   UNK A   0      15.987  36.951  46.013  0.00  0.00    +0.000 A 
ATOM     26  C   UNK A   0      16.689  35.998  45.272  0.00  0.00    +0.000 A 
ENDBRANCH  18  21
ENDBRANCH   2  17
BRANCH   2  27
ATOM     27  C   UNK A   1      18.445  42.415  42.278  0.00  0.00    +0.000 C 
ATOM     28  O   UNK A   1      18.861  43.506  41.904  0.00  0.00    +0.000 OA
ATOM     29  N   GLY A   2      17.480  41.718  41.590  0.00  0.00    +0.000 N 
ATOM     30  H   GLY A   2      17.109  40.890  41.972  0.00  0.00    +0.000 HD
BRANCH  29  31
ATOM     31  CA  GLY A   2      17.001  42.199  40.304  0.00  0.00    +0.000 C 
BRANCH  31  32
ATOM     32  C   GLY A   2      15.736  41.461  39.893  0.00  0.00    +0.000 C 
ATOM     33  O   GLY A   2      15.386  41.300  38.732  0.00  0.00    +0.000 OA
ATOM     34  OXT GLY A   2      15.010  41.000  40.939  0.00  0.00    +0.000 OA
ENDBRANCH  31  32
ENDBRANCH  29  31
ENDBRANCH   2  27
TORSDOF 8
ENDMDL
MODEL 5
REMARK VINA RESULT:      -3.5      3.655      8.623
REMARK  Name = 323372
REMARK  8 active torsions:
REMARK  status: ('A' for Active; 'I' for Inactive)
REMARK    1  A    between atoms: C_3  and  O_5
REMARK    2  A    between atoms: O_5  and  C_8
REMARK    3  A    between atoms: C_14  and  C_15
REMARK    4  A    between atoms: C_16  and  N_17
REMARK    5  A    between atoms: C_16  and  C_18
REMARK    6  A    between atoms: C_19  and  C_23
REMARK    7  A    between atoms: N_21  and  CA_24
REMARK    8  A    between atoms: CA_24  and  C_27
REMARK                            x       y       z     vdW  Elec       q    Type
REMARK                         _______ _______ _______ _____ _____    ______ ____
ROOT
ATOM      1  C   UNK A   1      21.110  42.803  49.088  0.00  0.00    +0.000 C 
ATOM      2  C   UNK A   1      22.238  42.246  48.606  0.00  0.00    +0.000 C 
ENDROOT
BRANCH   1   8
ATOM      3  C   UNK A   1      17.419  42.603  46.980  0.00  0.00    +0.000 A 
ATOM      4  C   UNK A   1      18.089  43.823  47.070  0.00  0.00    +0.000 A 
ATOM      5  C   UNK A   1      17.820  41.534  47.785  0.00  0.00    +0.000 A 
ATOM      6  C   UNK A   1      19.251  43.924  47.847  0.00  0.00    +0.000 A 
ATOM      7  C   UNK A   1      18.991  41.630  48.544  0.00  0.00    +0.000 A 
ATOM      8  C   UNK A   1      19.741  42.813  48.544  0.00  0.00    +0.000 A 
BRANCH   3   9
ATOM      9  O   UNK A   1      16.388  42.502  46.067  0.00  0.00    +0.000 OA
BRANCH   9  12
ATOM     10 BR   UNK A   1      16.097  39.427  46.280  0.00  0.00    +0.000 Br
ATOM     11  C   UNK A   1      16.607  40.482  44.788  0.00  0.00    +0.000 A 
ATOM     12  C   UNK A   1      16.654  41.881  44.855  0.00  0.00    +0.000 A 
ATOM     13  C   UNK A   1      16.935  39.820  43.598  0.00  0.00    +0.000 A 
ATOM     14  C   UNK A   1      16.941  42.602  43.686  0.00  0.00    +0.000 A 
ATOM     15  C   UNK A   1      17.294  40.549  42.463  0.00  0.00    +0.000 A 
ATOM     16  C   UNK A   1      17.282  41.940  42.504  0.00  0.00    +0.000 A 
ENDBRANCH   9  12
ENDBRANCH   3   9
ENDBRANCH   1   8
BRANCH   2  17
ATOM     17  N   UNK A   1      22.326  41.411  47.505  0.00  0.00    +0.000 N 
ATOM     18  C   UNK A   0      22.176  41.900  46.214  0.00  0.00    +0.000 C 
ATOM     19  O   UNK A   0      21.854  43.050  45.946  0.00  0.00    +0.000 OA
ATOM     20  H   UNK A   1      22.499  40.452  47.640  0.00  0.00    +0.000 HD
BRANCH  18  21
ATOM     21  C   UNK A   0      22.305  40.921  45.105  0.00  0.00    +0.000 A 
ATOM     22  C   UNK A   0      23.382  40.025  45.157  0.00  0.00    +0.000 A 
ATOM     23  C   UNK A   0      21.348  40.804  44.093  0.00  0.00    +0.000 A 
ATOM     24  C   UNK A   0      23.490  39.000  44.220  0.00  0.00    +0.000 A 
ATOM     25  C   UNK A   0      21.457  39.768  43.159  0.00  0.00    +0.000 A 
ATOM     26  C   UNK A   0      22.520  38.865  43.228  0.00  0.00    +0.000 A 
ENDBRANCH  18  21
ENDBRANCH   2  17
BRANCH   2  27
ATOM     27  C   UNK A   1      23.515  42.602  49.336  0.00  0.00    +0.000 C 
ATOM     28  O   UNK A   1      23.552  42.885  50.529  0.00  0.00    +0.000 OA
ATOM     29  N   GLY A   2      24.647  42.543  48.557  0.00  0.00    +0.000 N 
ATOM     30  H   GLY A   2      24.565  42.403  47.586  0.00  0.00    +0.000 HD
BRANCH  29  31
ATOM     31  CA  GLY A   2      25.962  42.689  49.159  0.00  0.00    +0.000 C 
BRANCH  31  32
ATOM     32  C   GLY A   2      26.903  41.603  48.660  0.00  0.00    +0.000 C 
ATOM     33  O   GLY A   2      27.946  41.293  49.219  0.00  0.00    +0.000 OA
ATOM     34  OXT GLY A   2      26.489  41.007  47.517  0.00  0.00    +0.000 OA
ENDBRANCH  31  32
ENDBRANCH  29  31
ENDBRANCH   2  27
TORSDOF 8
ENDMDL
MODEL 6
REMARK VINA RESULT:      -3.0      2.425      3.612
REMARK  Name = 323372
REMARK  8 active torsions:
REMARK  status: ('A' for Active; 'I' for Inactive)
REMARK    1  A    between atoms: C_3  and  O_5
REMARK    2  A    between atoms: O_5  and  C_8
REMARK    3  A    between atoms: C_14  and  C_15
REMARK    4  A    between atoms: C_16  and  N_17
REMARK    5  A    between atoms: C_16  and  C_18
REMARK    6  A    between atoms: C_19  and  C_23
REMARK    7  A    between atoms: N_21  and  CA_24
REMARK    8  A    between atoms: CA_24  and  C_27
REMARK                            x       y       z     vdW  Elec       q    Type
REMARK                         _______ _______ _______ _____ _____    ______ ____
ROOT
ATOM      1  C   UNK A   1      19.406  39.973  43.032  0.00  0.00    +0.000 C 
ATOM      2  C   UNK A   1      18.321  40.640  43.471  0.00  0.00    +0.000 C 
ENDROOT
BRANCH   1   8
ATOM      3  C   UNK A   1      23.351  40.307  44.592  0.00  0.00    +0.000 A 
ATOM      4  C   UNK A   1      22.588  41.460  44.412  0.00  0.00    +0.000 A 
ATOM      5  C   UNK A   1      22.925  39.102  44.028  0.00  0.00    +0.000 A 
ATOM      6  C   UNK A   1      21.328  41.374  43.804  0.00  0.00    +0.000 A 
ATOM      7  C   UNK A   1      21.659  39.013  43.440  0.00  0.00    +0.000 A 
ATOM      8  C   UNK A   1      20.831  40.141  43.365  0.00  0.00    +0.000 A 
BRANCH   3   9
ATOM      9  O   UNK A   1      24.500  40.409  45.352  0.00  0.00    +0.000 OA
BRANCH   9  12
ATOM     10 BR   UNK A   1      23.655  37.973  47.066  0.00  0.00    +0.000 Br
ATOM     11  C   UNK A   1      23.945  39.770  47.598  0.00  0.00    +0.000 A 
ATOM     12  C   UNK A   1      24.364  40.751  46.690  0.00  0.00    +0.000 A 
ATOM     13  C   UNK A   1      23.733  40.098  48.944  0.00  0.00    +0.000 A 
ATOM     14  C   UNK A   1      24.657  42.035  47.172  0.00  0.00    +0.000 A 
ATOM     15  C   UNK A   1      23.956  41.399  49.394  0.00  0.00    +0.000 A 
ATOM     16  C   UNK A   1      24.432  42.364  48.511  0.00  0.00    +0.000 A 
ENDBRANCH   9  12
ENDBRANCH   3   9
ENDBRANCH   1   8
BRANCH   2  17
ATOM     17  N   UNK A   1      18.304  41.588  44.480  0.00  0.00    +0.000 N 
ATOM     18  C   UNK A   0      17.663  41.349  45.688  0.00  0.00    +0.000 C 
ATOM     19  O   UNK A   0      16.985  40.357  45.922  0.00  0.00    +0.000 OA
ATOM     20  H   UNK A   1      18.757  42.451  44.338  0.00  0.00    +0.000 HD
BRANCH  18  21
ATOM     21  C   UNK A   0      17.721  42.428  46.706  0.00  0.00    +0.000 A 
ATOM     22  C   UNK A   0      18.882  42.517  47.486  0.00  0.00    +0.000 A 
ATOM     23  C   UNK A   0      16.720  43.395  46.831  0.00  0.00    +0.000 A 
ATOM     24  C   UNK A   0      19.055  43.580  48.370  0.00  0.00    +0.000 A 
ATOM     25  C   UNK A   0      16.903  44.465  47.713  0.00  0.00    +0.000 A 
ATOM     26  C   UNK A   0      18.071  44.561  48.473  0.00  0.00    +0.000 A 
ENDBRANCH  18  21
ENDBRANCH   2  17
BRANCH   2  27
ATOM     27  C   UNK A   1      17.021  40.325  42.763  0.00  0.00    +0.000 C 
ATOM     28  O   UNK A   1      16.280  39.406  43.094  0.00  0.00    +0.000 OA
ATOM     29  N   GLY A   2      16.714  41.187  41.737  0.00  0.00    +0.000 N 
ATOM     30  H   GLY A   2      17.376  41.854  41.444  0.00  0.00    +0.000 HD
BRANCH  29  31
ATOM     31  CA  GLY A   2      15.419  41.117  41.080  0.00  0.00    +0.000 C 
BRANCH  31  32
ATOM     32  C   GLY A   2      15.568  41.302  39.578  0.00  0.00    +0.000 C 
ATOM     33  O   GLY A   2      14.897  40.707  38.746  0.00  0.00    +0.000 OA
ATOM     34  OXT GLY A   2      16.533  42.186  39.231  0.00  0.00    +0.000 OA
ENDBRANCH  31  32
ENDBRANCH  29  31
ENDBRANCH   2  27
TORSDOF 8
ENDMDL
