MODEL 1
REMARK VINA RESULT:      -7.1      0.000      0.000
REMARK  Name = 319953
REMARK  6 active torsions:
REMARK  status: ('A' for Active; 'I' for Inactive)
REMARK    1  A    between atoms: C_3  and  O_5
REMARK    2  A    between atoms: O_5  and  C_8
REMARK    3  A    between atoms: C_14  and  C_15
REMARK    4  A    between atoms: CA_16  and  N_17
REMARK    5  A    between atoms: CA_16  and  C_18
REMARK    6  A    between atoms: C_19  and  C_23
REMARK                            x       y       z     vdW  Elec       q    Type
REMARK                         _______ _______ _______ _____ _____    ______ ____
ROOT
ATOM      1  C   UNL     1      20.139  42.559  43.496  0.00  0.00    +0.000 C 
ATOM      2  CA  UNL     1      19.032  41.913  43.092  0.00  0.00    +0.000 C 
ENDROOT
BRANCH   1   8
ATOM      3  C   UNL     1      22.398  41.259  46.841  0.00  0.00    +0.000 A 
ATOM      4  C   UNL     1      21.984  42.590  46.776  0.00  0.00    +0.000 A 
ATOM      5  C   UNL     1      22.295  40.441  45.713  0.00  0.00    +0.000 A 
ATOM      6  C   UNL     1      21.324  43.055  45.634  0.00  0.00    +0.000 A 
ATOM      7  C   UNL     1      21.617  40.901  44.582  0.00  0.00    +0.000 A 
ATOM      8  C   UNL     1      21.088  42.196  44.556  0.00  0.00    +0.000 A 
BRANCH   3   9
ATOM      9  O   UNL     1      22.869  40.793  48.051  0.00  0.00    +0.000 OA
BRANCH   9  12
ATOM     10 BR   UNL     1      25.638  40.476  46.718  0.00  0.00    +0.000 Br
ATOM     11  C   UNL     1      25.154  41.490  48.247  0.00  0.00    +0.000 A 
ATOM     12  C   UNL     1      23.831  41.551  48.701  0.00  0.00    +0.000 A 
ATOM     13  C   UNL     1      26.164  42.184  48.924  0.00  0.00    +0.000 A 
ATOM     14  C   UNL     1      23.525  42.393  49.781  0.00  0.00    +0.000 A 
ATOM     15  C   UNL     1      25.856  42.956  50.046  0.00  0.00    +0.000 A 
ATOM     16  C   UNL     1      24.535  43.070  50.466  0.00  0.00    +0.000 A 
ENDBRANCH   9  12
ENDBRANCH   3   9
ENDBRANCH   1   8
BRANCH   2  17
ATOM     17  N   UNL     1      18.636  40.644  43.490  0.00  0.00    +0.000 N 
ATOM     18  C   UNL     1      17.750  40.465  44.542  0.00  0.00    +0.000 C 
ATOM     19  O   UNL     1      17.357  41.378  45.263  0.00  0.00    +0.000 OA
ATOM     20  H   UNL     1      18.989  39.857  43.016  0.00  0.00    +0.000 HD
BRANCH  18  21
ATOM     21  C   UNL     1      17.394  39.065  44.898  0.00  0.00    +0.000 A 
ATOM     22  C   UNL     1      17.976  38.036  44.139  0.00  0.00    +0.000 A 
ATOM     23  C   UNL     1      16.580  38.749  45.991  0.00  0.00    +0.000 A 
ATOM     24  C   UNL     1      17.771  36.700  44.486  0.00  0.00    +0.000 A 
ATOM     25  C   UNL     1      16.381  37.408  46.339  0.00  0.00    +0.000 A 
ATOM     26  C   UNL     1      16.985  36.393  45.593  0.00  0.00    +0.000 A 
ATOM     27 CL   UNL     1      16.785  34.750  46.062  0.00  0.00    +0.000 Cl
ENDBRANCH  18  21
ENDBRANCH   2  17
BRANCH   2  28
ATOM     28  C   UNL     1      18.162  42.657  42.126  0.00  0.00    +0.000 C 
ATOM     29  O   UNL     1      18.299  43.823  41.808  0.00  0.00    +0.000 OA
ATOM     30  OXT UNL     1      17.176  41.862  41.646  0.00  0.00    +0.000 OA
ENDBRANCH   2  28
TORSDOF 6
ENDMDL
MODEL 2
REMARK VINA RESULT:      -7.1      1.313      1.709
REMARK  Name = 319953
REMARK  6 active torsions:
REMARK  status: ('A' for Active; 'I' for Inactive)
REMARK    1  A    between atoms: C_3  and  O_5
REMARK    2  A    between atoms: O_5  and  C_8
REMARK    3  A    between atoms: C_14  and  C_15
REMARK    4  A    between atoms: CA_16  and  N_17
REMARK    5  A    between atoms: CA_16  and  C_18
REMARK    6  A    between atoms: C_19  and  C_23
REMARK                            x       y       z     vdW  Elec       q    Type
REMARK                         _______ _______ _______ _____ _____    ______ ____
ROOT
ATOM      1  C   UNL     1      18.828  43.414  45.176  0.00  0.00    +0.000 C 
ATOM      2  CA  UNL     1      17.889  42.625  44.626  0.00  0.00    +0.000 C 
ENDROOT
BRANCH   1   8
ATOM      3  C   UNL     1      21.989  41.807  47.502  0.00  0.00    +0.000 A 
ATOM      4  C   UNL     1      20.719  41.920  48.068  0.00  0.00    +0.000 A 
ATOM      5  C   UNL     1      22.272  42.444  46.292  0.00  0.00    +0.000 A 
ATOM      6  C   UNL     1      19.691  42.538  47.346  0.00  0.00    +0.000 A 
ATOM      7  C   UNL     1      21.241  43.042  45.563  0.00  0.00    +0.000 A 
ATOM      8  C   UNL     1      19.936  43.050  46.068  0.00  0.00    +0.000 A 
BRANCH   3   9
ATOM      9  O   UNL     1      22.916  41.026  48.161  0.00  0.00    +0.000 OA
BRANCH   9  12
ATOM     10 BR   UNL     1      25.503  40.594  46.530  0.00  0.00    +0.000 Br
ATOM     11  C   UNL     1      25.257  41.539  48.156  0.00  0.00    +0.000 A 
ATOM     12  C   UNL     1      23.994  41.668  48.748  0.00  0.00    +0.000 A 
ATOM     13  C   UNL     1      26.381  42.113  48.762  0.00  0.00    +0.000 A 
ATOM     14  C   UNL     1      23.865  42.458  49.901  0.00  0.00    +0.000 A 
ATOM     15  C   UNL     1      26.249  42.831  49.952  0.00  0.00    +0.000 A 
ATOM     16  C   UNL     1      24.989  43.014  50.514  0.00  0.00    +0.000 A 
ENDBRANCH   9  12
ENDBRANCH   3   9
ENDBRANCH   1   8
BRANCH   2  17
ATOM     17  N   UNL     1      17.871  41.238  44.650  0.00  0.00    +0.000 N 
ATOM     18  C   UNL     1      17.095  40.546  45.568  0.00  0.00    +0.000 C 
ATOM     19  O   UNL     1      16.481  41.086  46.484  0.00  0.00    +0.000 OA
ATOM     20  H   UNL     1      18.418  40.737  44.004  0.00  0.00    +0.000 HD
BRANCH  18  21
ATOM     21  C   UNL     1      17.151  39.060  45.520  0.00  0.00    +0.000 A 
ATOM     22  C   UNL     1      16.394  38.352  46.466  0.00  0.00    +0.000 A 
ATOM     23  C   UNL     1      17.856  38.365  44.530  0.00  0.00    +0.000 A 
ATOM     24  C   UNL     1      16.315  36.960  46.410  0.00  0.00    +0.000 A 
ATOM     25  C   UNL     1      17.770  36.969  44.474  0.00  0.00    +0.000 A 
ATOM     26  C   UNL     1      16.993  36.276  45.405  0.00  0.00    +0.000 A 
ATOM     27 CL   UNL     1      16.845  34.566  45.294  0.00  0.00    +0.000 Cl
ENDBRANCH  18  21
ENDBRANCH   2  17
BRANCH   2  28
ATOM     28  C   UNL     1      16.769  43.337  43.932  0.00  0.00    +0.000 C 
ATOM     29  O   UNL     1      16.292  44.404  44.273  0.00  0.00    +0.000 OA
ATOM     30  OXT UNL     1      16.330  42.631  42.863  0.00  0.00    +0.000 OA
ENDBRANCH   2  28
TORSDOF 6
ENDMDL
MODEL 3
REMARK VINA RESULT:      -6.0      4.023      8.073
REMARK  Name = 319953
REMARK  6 active torsions:
REMARK  status: ('A' for Active; 'I' for Inactive)
REMARK    1  A    between atoms: C_3  and  O_5
REMARK    2  A    between atoms: O_5  and  C_8
REMARK    3  A    between atoms: C_14  and  C_15
REMARK    4  A    between atoms: CA_16  and  N_17
REMARK    5  A    between atoms: CA_16  and  C_18
REMARK    6  A    between atoms: C_19  and  C_23
REMARK                            x       y       z     vdW  Elec       q    Type
REMARK                         _______ _______ _______ _____ _____    ______ ____
ROOT
ATOM      1  C   UNL     1      23.273  38.939  44.624  0.00  0.00    +0.000 C 
ATOM      2  CA  UNL     1      23.894  38.722  45.796  0.00  0.00    +0.000 C 
ENDROOT
BRANCH   1   8
ATOM      3  C   UNL     1      20.246  41.840  43.980  0.00  0.00    +0.000 A 
ATOM      4  C   UNL     1      20.328  40.742  43.123  0.00  0.00    +0.000 A 
ATOM      5  C   UNL     1      21.291  42.112  44.867  0.00  0.00    +0.000 A 
ATOM      6  C   UNL     1      21.381  39.830  43.264  0.00  0.00    +0.000 A 
ATOM      7  C   UNL     1      22.329  41.190  45.021  0.00  0.00    +0.000 A 
ATOM      8  C   UNL     1      22.352  40.021  44.251  0.00  0.00    +0.000 A 
BRANCH   3   9
ATOM      9  O   UNL     1      19.098  42.603  43.934  0.00  0.00    +0.000 OA
BRANCH   9  12
ATOM     10 BR   UNL     1      16.863  40.470  43.985  0.00  0.00    +0.000 Br
ATOM     11  C   UNL     1      17.257  41.822  45.256  0.00  0.00    +0.000 A 
ATOM     12  C   UNL     1      18.341  42.693  45.092  0.00  0.00    +0.000 A 
ATOM     13  C   UNL     1      16.427  41.934  46.378  0.00  0.00    +0.000 A 
ATOM     14  C   UNL     1      18.633  43.610  46.114  0.00  0.00    +0.000 A 
ATOM     15  C   UNL     1      16.684  42.903  47.349  0.00  0.00    +0.000 A 
ATOM     16  C   UNL     1      17.795  43.732  47.223  0.00  0.00    +0.000 A 
ENDBRANCH   9  12
ENDBRANCH   3   9
ENDBRANCH   1   8
BRANCH   2  17
ATOM     17  N   UNL     1      23.932  39.594  46.875  0.00  0.00    +0.000 N 
ATOM     18  C   UNL     1      24.885  40.598  46.954  0.00  0.00    +0.000 C 
ATOM     19  O   UNL     1      25.820  40.713  46.166  0.00  0.00    +0.000 OA
ATOM     20  H   UNL     1      23.269  39.498  47.596  0.00  0.00    +0.000 HD
BRANCH  18  21
ATOM     21  C   UNL     1      24.848  41.474  48.155  0.00  0.00    +0.000 A 
ATOM     22  C   UNL     1      23.610  41.637  48.800  0.00  0.00    +0.000 A 
ATOM     23  C   UNL     1      25.997  42.062  48.696  0.00  0.00    +0.000 A 
ATOM     24  C   UNL     1      23.524  42.357  49.992  0.00  0.00    +0.000 A 
ATOM     25  C   UNL     1      25.907  42.780  49.895  0.00  0.00    +0.000 A 
ATOM     26  C   UNL     1      24.676  42.914  50.541  0.00  0.00    +0.000 A 
ATOM     27 CL   UNL     1      24.584  43.745  52.043  0.00  0.00    +0.000 Cl
ENDBRANCH  18  21
ENDBRANCH   2  17
BRANCH   2  28
ATOM     28  C   UNL     1      24.602  37.408  45.921  0.00  0.00    +0.000 C 
ATOM     29  O   UNL     1      25.623  37.098  45.336  0.00  0.00    +0.000 OA
ATOM     30  OXT UNL     1      23.948  36.582  46.772  0.00  0.00    +0.000 OA
ENDBRANCH   2  28
TORSDOF 6
ENDMDL
MODEL 4
REMARK VINA RESULT:      -5.5      3.430      7.314
REMARK  Name = 319953
REMARK  6 active torsions:
REMARK  status: ('A' for Active; 'I' for Inactive)
REMARK    1  A    between atoms: C_3  and  O_5
REMARK    2  A    between atoms: O_5  and  C_8
REMARK    3  A    between atoms: C_14  and  C_15
REMARK    4  A    between atoms: CA_16  and  N_17
REMARK    5  A    between atoms: CA_16  and  C_18
REMARK    6  A    between atoms: C_19  and  C_23
REMARK                            x       y       z     vdW  Elec       q    Type
REMARK                         _______ _______ _______ _____ _____    ______ ____
ROOT
ATOM      1  C   UNL     1      24.085  40.742  46.025  0.00  0.00    +0.000 C 
ATOM      2  CA  UNL     1      23.823  41.608  47.018  0.00  0.00    +0.000 C 
ENDROOT
BRANCH   1   8
ATOM      3  C   UNL     1      21.017  39.360  43.444  0.00  0.00    +0.000 A 
ATOM      4  C   UNL     1      21.696  38.441  44.245  0.00  0.00    +0.000 A 
ATOM      5  C   UNL     1      21.508  40.660  43.305  0.00  0.00    +0.000 A 
ATOM      6  C   UNL     1      22.775  38.868  45.027  0.00  0.00    +0.000 A 
ATOM      7  C   UNL     1      22.571  41.090  44.102  0.00  0.00    +0.000 A 
ATOM      8  C   UNL     1      23.179  40.207  45.000  0.00  0.00    +0.000 A 
BRANCH   3   9
ATOM      9  O   UNL     1      19.848  38.942  42.842  0.00  0.00    +0.000 OA
BRANCH   9  12
ATOM     10 BR   UNL     1      18.142  41.518  42.849  0.00  0.00    +0.000 Br
ATOM     11  C   UNL     1      17.865  39.895  43.793  0.00  0.00    +0.000 A 
ATOM     12  C   UNL     1      18.727  38.802  43.645  0.00  0.00    +0.000 A 
ATOM     13  C   UNL     1      16.764  39.814  44.654  0.00  0.00    +0.000 A 
ATOM     14  C   UNL     1      18.414  37.601  44.300  0.00  0.00    +0.000 A 
ATOM     15  C   UNL     1      16.509  38.636  45.359  0.00  0.00    +0.000 A 
ATOM     16  C   UNL     1      17.326  37.526  45.171  0.00  0.00    +0.000 A 
ENDBRANCH   9  12
ENDBRANCH   3   9
ENDBRANCH   1   8
BRANCH   2  17
ATOM     17  N   UNL     1      22.650  42.330  47.185  0.00  0.00    +0.000 N 
ATOM     18  C   UNL     1      21.439  41.690  47.403  0.00  0.00    +0.000 C 
ATOM     19  O   UNL     1      21.291  40.473  47.343  0.00  0.00    +0.000 OA
ATOM     20  H   UNL     1      22.678  43.312  47.148  0.00  0.00    +0.000 HD
BRANCH  18  21
ATOM     21  C   UNL     1      20.236  42.552  47.561  0.00  0.00    +0.000 A 
ATOM     22  C   UNL     1      19.629  43.036  46.391  0.00  0.00    +0.000 A 
ATOM     23  C   UNL     1      19.660  42.821  48.808  0.00  0.00    +0.000 A 
ATOM     24  C   UNL     1      18.438  43.759  46.461  0.00  0.00    +0.000 A 
ATOM     25  C   UNL     1      18.462  43.542  48.873  0.00  0.00    +0.000 A 
ATOM     26  C   UNL     1      17.853  43.997  47.701  0.00  0.00    +0.000 A 
ATOM     27 CL   UNL     1      16.351  44.831  47.785  0.00  0.00    +0.000 Cl
ENDBRANCH  18  21
ENDBRANCH   2  17
BRANCH   2  28
ATOM     28  C   UNL     1      24.917  41.789  48.026  0.00  0.00    +0.000 C 
ATOM     29  O   UNL     1      26.106  41.652  47.809  0.00  0.00    +0.000 OA
ATOM     30  OXT UNL     1      24.412  42.118  49.239  0.00  0.00    +0.000 OA
ENDBRANCH   2  28
TORSDOF 6
ENDMDL
MODEL 5
REMARK VINA RESULT:      -4.9      3.522      7.365
REMARK  Name = 319953
REMARK  6 active torsions:
REMARK  status: ('A' for Active; 'I' for Inactive)
REMARK    1  A    between atoms: C_3  and  O_5
REMARK    2  A    between atoms: O_5  and  C_8
REMARK    3  A    between atoms: C_14  and  C_15
REMARK    4  A    between atoms: CA_16  and  N_17
REMARK    5  A    between atoms: CA_16  and  C_18
REMARK    6  A    between atoms: C_19  and  C_23
REMARK                            x       y       z     vdW  Elec       q    Type
REMARK                         _______ _______ _______ _____ _____    ______ ____
ROOT
ATOM      1  C   UNL     1      24.286  40.689  46.377  0.00  0.00    +0.000 C 
ATOM      2  CA  UNL     1      23.974  41.553  47.358  0.00  0.00    +0.000 C 
ENDROOT
BRANCH   1   8
ATOM      3  C   UNL     1      21.366  39.409  43.581  0.00  0.00    +0.000 A 
ATOM      4  C   UNL     1      21.858  38.497  44.515  0.00  0.00    +0.000 A 
ATOM      5  C   UNL     1      22.006  40.639  43.404  0.00  0.00    +0.000 A 
ATOM      6  C   UNL     1      22.891  38.878  45.378  0.00  0.00    +0.000 A 
ATOM      7  C   UNL     1      23.022  41.026  44.280  0.00  0.00    +0.000 A 
ATOM      8  C   UNL     1      23.437  40.164  45.301  0.00  0.00    +0.000 A 
BRANCH   3   9
ATOM      9  O   UNL     1      20.226  39.062  42.886  0.00  0.00    +0.000 OA
BRANCH   9  12
ATOM     10 BR   UNL     1      18.093  37.368  44.345  0.00  0.00    +0.000 Br
ATOM     11  C   UNL     1      17.992  39.166  43.747  0.00  0.00    +0.000 A 
ATOM     12  C   UNL     1      19.077  39.798  43.128  0.00  0.00    +0.000 A 
ATOM     13  C   UNL     1      16.790  39.858  43.940  0.00  0.00    +0.000 A 
ATOM     14  C   UNL     1      18.968  41.157  42.793  0.00  0.00    +0.000 A 
ATOM     15  C   UNL     1      16.671  41.187  43.531  0.00  0.00    +0.000 A 
ATOM     16  C   UNL     1      17.764  41.840  42.970  0.00  0.00    +0.000 A 
ENDBRANCH   9  12
ENDBRANCH   3   9
ENDBRANCH   1   8
BRANCH   2  17
ATOM     17  N   UNL     1      22.797  42.281  47.460  0.00  0.00    +0.000 N 
ATOM     18  C   UNL     1      21.565  41.648  47.542  0.00  0.00    +0.000 C 
ATOM     19  O   UNL     1      21.413  40.437  47.408  0.00  0.00    +0.000 OA
ATOM     20  H   UNL     1      22.837  43.264  47.476  0.00  0.00    +0.000 HD
BRANCH  18  21
ATOM     21  C   UNL     1      20.362  42.517  47.640  0.00  0.00    +0.000 A 
ATOM     22  C   UNL     1      19.786  42.964  46.439  0.00  0.00    +0.000 A 
ATOM     23  C   UNL     1      19.755  42.829  48.862  0.00  0.00    +0.000 A 
ATOM     24  C   UNL     1      18.596  43.691  46.455  0.00  0.00    +0.000 A 
ATOM     25  C   UNL     1      18.558  43.555  48.872  0.00  0.00    +0.000 A 
ATOM     26  C   UNL     1      17.980  43.971  47.671  0.00  0.00    +0.000 A 
ATOM     27 CL   UNL     1      16.479  44.811  47.689  0.00  0.00    +0.000 Cl
ENDBRANCH  18  21
ENDBRANCH   2  17
BRANCH   2  28
ATOM     28  C   UNL     1      25.008  41.723  48.428  0.00  0.00    +0.000 C 
ATOM     29  O   UNL     1      26.184  41.427  48.325  0.00  0.00    +0.000 OA
ATOM     30  OXT UNL     1      24.465  42.245  49.552  0.00  0.00    +0.000 OA
ENDBRANCH   2  28
TORSDOF 6
ENDMDL
MODEL 6
REMARK VINA RESULT:      -4.9      1.932      2.382
REMARK  Name = 319953
REMARK  6 active torsions:
REMARK  status: ('A' for Active; 'I' for Inactive)
REMARK    1  A    between atoms: C_3  and  O_5
REMARK    2  A    between atoms: O_5  and  C_8
REMARK    3  A    between atoms: C_14  and  C_15
REMARK    4  A    between atoms: CA_16  and  N_17
REMARK    5  A    between atoms: CA_16  and  C_18
REMARK    6  A    between atoms: C_19  and  C_23
REMARK                            x       y       z     vdW  Elec       q    Type
REMARK                         _______ _______ _______ _____ _____    ______ ____
ROOT
ATOM      1  C   UNL     1      19.112  43.368  45.296  0.00  0.00    +0.000 C 
ATOM      2  CA  UNL     1      17.896  42.798  45.325  0.00  0.00    +0.000 C 
ENDROOT
BRANCH   1   8
ATOM      3  C   UNL     1      22.728  41.153  45.305  0.00  0.00    +0.000 A 
ATOM      4  C   UNL     1      22.672  42.364  45.994  0.00  0.00    +0.000 A 
ATOM      5  C   UNL     1      21.703  40.805  44.421  0.00  0.00    +0.000 A 
ATOM      6  C   UNL     1      21.518  43.152  45.918  0.00  0.00    +0.000 A 
ATOM      7  C   UNL     1      20.543  41.581  44.363  0.00  0.00    +0.000 A 
ATOM      8  C   UNL     1      20.428  42.734  45.148  0.00  0.00    +0.000 A 
BRANCH   3   9
ATOM      9  O   UNL     1      23.799  40.321  45.559  0.00  0.00    +0.000 OA
BRANCH   9  12
ATOM     10 BR   UNL     1      23.251  38.997  48.296  0.00  0.00    +0.000 Br
ATOM     11  C   UNL     1      24.588  40.256  47.821  0.00  0.00    +0.000 A 
ATOM     12  C   UNL     1      24.719  40.731  46.511  0.00  0.00    +0.000 A 
ATOM     13  C   UNL     1      25.454  40.707  48.825  0.00  0.00    +0.000 A 
ATOM     14  C   UNL     1      25.787  41.590  46.206  0.00  0.00    +0.000 A 
ATOM     15  C   UNL     1      26.465  41.621  48.522  0.00  0.00    +0.000 A 
ATOM     16  C   UNL     1      26.638  42.052  47.210  0.00  0.00    +0.000 A 
ENDBRANCH   9  12
ENDBRANCH   3   9
ENDBRANCH   1   8
BRANCH   2  17
ATOM     17  N   UNL     1      17.609  41.470  45.042  0.00  0.00    +0.000 N 
ATOM     18  C   UNL     1      17.561  40.516  46.048  0.00  0.00    +0.000 C 
ATOM     19  O   UNL     1      17.882  40.738  47.212  0.00  0.00    +0.000 OA
ATOM     20  H   UNL     1      17.436  41.201  44.112  0.00  0.00    +0.000 HD
BRANCH  18  21
ATOM     21  C   UNL     1      17.255  39.118  45.641  0.00  0.00    +0.000 A 
ATOM     22  C   UNL     1      18.119  38.508  44.717  0.00  0.00    +0.000 A 
ATOM     23  C   UNL     1      16.202  38.384  46.201  0.00  0.00    +0.000 A 
ATOM     24  C   UNL     1      17.952  37.166  44.375  0.00  0.00    +0.000 A 
ATOM     25  C   UNL     1      16.042  37.036  45.859  0.00  0.00    +0.000 A 
ATOM     26  C   UNL     1      16.923  36.432  44.958  0.00  0.00    +0.000 A 
ATOM     27 CL   UNL     1      16.757  34.761  44.588  0.00  0.00    +0.000 Cl
ENDBRANCH  18  21
ENDBRANCH   2  17
BRANCH   2  28
ATOM     28  C   UNL     1      16.763  43.703  45.704  0.00  0.00    +0.000 C 
ATOM     29  O   UNL     1      16.361  43.893  46.837  0.00  0.00    +0.000 OA
ATOM     30  OXT UNL     1      16.221  44.288  44.610  0.00  0.00    +0.000 OA
ENDBRANCH   2  28
TORSDOF 6
ENDMDL
MODEL 7
REMARK VINA RESULT:      -4.4      3.189      4.363
REMARK  Name = 319953
REMARK  6 active torsions:
REMARK  status: ('A' for Active; 'I' for Inactive)
REMARK    1  A    between atoms: C_3  and  O_5
REMARK    2  A    between atoms: O_5  and  C_8
REMARK    3  A    between atoms: C_14  and  C_15
REMARK    4  A    between atoms: CA_16  and  N_17
REMARK    5  A    between atoms: CA_16  and  C_18
REMARK    6  A    between atoms: C_19  and  C_23
REMARK                            x       y       z     vdW  Elec       q    Type
REMARK                         _______ _______ _______ _____ _____    ______ ____
ROOT
ATOM      1  C   UNL     1      20.533  38.753  44.286  0.00  0.00    +0.000 C 
ATOM      2  CA  UNL     1      19.313  39.308  44.369  0.00  0.00    +0.000 C 
ENDROOT
BRANCH   1   8
ATOM      3  C   UNL     1      24.119  40.374  45.866  0.00  0.00    +0.000 A 
ATOM      4  C   UNL     1      23.148  41.238  45.361  0.00  0.00    +0.000 A 
ATOM      5  C   UNL     1      24.027  39.002  45.622  0.00  0.00    +0.000 A 
ATOM      6  C   UNL     1      22.004  40.714  44.748  0.00  0.00    +0.000 A 
ATOM      7  C   UNL     1      22.875  38.478  45.030  0.00  0.00    +0.000 A 
ATOM      8  C   UNL     1      21.839  39.330  44.632  0.00  0.00    +0.000 A 
BRANCH   3   9
ATOM      9  O   UNL     1      25.130  40.923  46.629  0.00  0.00    +0.000 OA
BRANCH   9  12
ATOM     10 BR   UNL     1      27.602  41.605  48.351  0.00  0.00    +0.000 Br
ATOM     11  C   UNL     1      25.768  41.945  48.701  0.00  0.00    +0.000 A 
ATOM     12  C   UNL     1      24.768  41.596  47.785  0.00  0.00    +0.000 A 
ATOM     13  C   UNL     1      25.431  42.559  49.913  0.00  0.00    +0.000 A 
ATOM     14  C   UNL     1      23.441  41.959  48.062  0.00  0.00    +0.000 A 
ATOM     15  C   UNL     1      24.097  42.844  50.209  0.00  0.00    +0.000 A 
ATOM     16  C   UNL     1      23.104  42.555  49.278  0.00  0.00    +0.000 A 
ENDBRANCH   9  12
ENDBRANCH   3   9
ENDBRANCH   1   8
BRANCH   2  17
ATOM     17  N   UNL     1      19.005  40.518  44.975  0.00  0.00    +0.000 N 
ATOM     18  C   UNL     1      18.417  40.563  46.231  0.00  0.00    +0.000 C 
ATOM     19  O   UNL     1      18.020  39.568  46.832  0.00  0.00    +0.000 OA
ATOM     20  H   UNL     1      19.208  41.359  44.506  0.00  0.00    +0.000 HD
BRANCH  18  21
ATOM     21  C   UNL     1      18.118  41.908  46.791  0.00  0.00    +0.000 A 
ATOM     22  C   UNL     1      19.095  42.501  47.607  0.00  0.00    +0.000 A 
ATOM     23  C   UNL     1      16.954  42.615  46.471  0.00  0.00    +0.000 A 
ATOM     24  C   UNL     1      18.926  43.804  48.077  0.00  0.00    +0.000 A 
ATOM     25  C   UNL     1      16.791  43.924  46.940  0.00  0.00    +0.000 A 
ATOM     26  C   UNL     1      17.781  44.514  47.730  0.00  0.00    +0.000 A 
ATOM     27 CL   UNL     1      17.600  46.143  48.254  0.00  0.00    +0.000 Cl
ENDBRANCH  18  21
ENDBRANCH   2  17
BRANCH   2  28
ATOM     28  C   UNL     1      18.201  38.529  43.736  0.00  0.00    +0.000 C 
ATOM     29  O   UNL     1      18.111  37.316  43.717  0.00  0.00    +0.000 OA
ATOM     30  OXT UNL     1      17.293  39.354  43.162  0.00  0.00    +0.000 OA
ENDBRANCH   2  28
TORSDOF 6
ENDMDL
