MODEL 1
REMARK VINA RESULT:      -7.9      0.000      0.000
REMARK  Name = 322374
REMARK  9 active torsions:
REMARK  status: ('A' for Active; 'I' for Inactive)
REMARK    1  A    between atoms: C_3  and  O_5
REMARK    2  A    between atoms: O_5  and  C_8
REMARK    3  A    between atoms: C_14  and  C_15
REMARK    4  A    between atoms: CA_16  and  N_17
REMARK    5  A    between atoms: CA_16  and  C_18
REMARK    6  A    between atoms: C_19  and  C_23
REMARK    7  A    between atoms: C_23  and  C_24
REMARK    8  A    between atoms: C_24  and  C_25
REMARK    9  A    between atoms: C_30  and  C_31
REMARK                            x       y       z     vdW  Elec       q    Type
REMARK                         _______ _______ _______ _____ _____    ______ ____
ROOT
ATOM      1  C   UNL     1      22.629  42.134  48.524  0.00  0.00    +0.000 C 
ATOM      2  CA  UNL     1      23.899  41.763  48.255  0.00  0.00    +0.000 C 
ENDROOT
BRANCH   1   8
ATOM      3  C   UNL     1      18.789  41.431  46.858  0.00  0.00    +0.000 A 
ATOM      4  C   UNL     1      19.684  40.373  46.973  0.00  0.00    +0.000 A 
ATOM      5  C   UNL     1      19.222  42.744  47.074  0.00  0.00    +0.000 A 
ATOM      6  C   UNL     1      20.973  40.614  47.461  0.00  0.00    +0.000 A 
ATOM      7  C   UNL     1      20.505  42.981  47.564  0.00  0.00    +0.000 A 
ATOM      8  C   UNL     1      21.378  41.909  47.795  0.00  0.00    +0.000 A 
BRANCH   3   9
ATOM      9  O   UNL     1      17.470  41.129  46.581  0.00  0.00    +0.000 OA
BRANCH   9  12
ATOM     10 BR   UNL     1      17.120  38.219  45.607  0.00  0.00    +0.000 Br
ATOM     11  C   UNL     1      16.954  39.839  44.632  0.00  0.00    +0.000 A 
ATOM     12  C   UNL     1      17.103  41.082  45.243  0.00  0.00    +0.000 A 
ATOM     13  C   UNL     1      16.667  39.757  43.264  0.00  0.00    +0.000 A 
ATOM     14  C   UNL     1      16.864  42.247  44.488  0.00  0.00    +0.000 A 
ATOM     15  C   UNL     1      16.519  40.919  42.507  0.00  0.00    +0.000 A 
ATOM     16  C   UNL     1      16.604  42.165  43.122  0.00  0.00    +0.000 A 
ENDBRANCH   9  12
ENDBRANCH   3   9
ENDBRANCH   1   8
BRANCH   2  17
ATOM     17  N   UNL     1      24.314  40.929  47.220  0.00  0.00    +0.000 N 
ATOM     18  C   UNL     1      24.082  39.567  47.123  0.00  0.00    +0.000 C 
ATOM     19  O   UNL     1      23.637  38.853  48.015  0.00  0.00    +0.000 OA
ATOM     20  H   UNL     1      24.822  41.348  46.488  0.00  0.00    +0.000 HD
BRANCH  18  21
ATOM     21  C   UNL     1      24.586  38.967  45.827  0.00  0.00    +0.000 C 
BRANCH  21  22
ATOM     22  C   UNL     1      23.427  38.343  45.048  0.00  0.00    +0.000 C 
BRANCH  22  23
ATOM     23  C   UNL     1      22.509  39.398  44.489  0.00  0.00    +0.000 A 
ATOM     24  C   UNL     1      22.871  40.749  44.560  0.00  0.00    +0.000 A 
ATOM     25  C   UNL     1      21.277  39.052  43.924  0.00  0.00    +0.000 A 
ATOM     26  C   UNL     1      22.010  41.740  44.088  0.00  0.00    +0.000 A 
ATOM     27  C   UNL     1      20.415  40.045  43.451  0.00  0.00    +0.000 A 
ATOM     28  C   UNL     1      20.768  41.397  43.544  0.00  0.00    +0.000 A 
ATOM     29  C   UNL     1      19.816  42.454  43.071  0.00  0.00    +0.000 C 
ENDBRANCH  22  23
ENDBRANCH  21  22
ENDBRANCH  18  21
ENDBRANCH   2  17
BRANCH   2  30
ATOM     30  C   UNL     1      24.906  42.414  49.185  0.00  0.00    +0.000 C 
ATOM     31  O   UNL     1      26.110  42.443  48.975  0.00  0.00    +0.000 OA
ATOM     32  OXT UNL     1      24.396  42.979  50.297  0.00  0.00    +0.000 OA
ENDBRANCH   2  30
TORSDOF 8
ENDMDL
MODEL 2
REMARK VINA RESULT:      -7.7      2.859      7.332
REMARK  Name = 322374
REMARK  9 active torsions:
REMARK  status: ('A' for Active; 'I' for Inactive)
REMARK    1  A    between atoms: C_3  and  O_5
REMARK    2  A    between atoms: O_5  and  C_8
REMARK    3  A    between atoms: C_14  and  C_15
REMARK    4  A    between atoms: CA_16  and  N_17
REMARK    5  A    between atoms: CA_16  and  C_18
REMARK    6  A    between atoms: C_19  and  C_23
REMARK    7  A    between atoms: C_23  and  C_24
REMARK    8  A    between atoms: C_24  and  C_25
REMARK    9  A    between atoms: C_30  and  C_31
REMARK                            x       y       z     vdW  Elec       q    Type
REMARK                         _______ _______ _______ _____ _____    ______ ____
ROOT
ATOM      1  C   UNL     1      19.972  41.606  43.638  0.00  0.00    +0.000 C 
ATOM      2  CA  UNL     1      18.694  41.186  43.538  0.00  0.00    +0.000 C 
ENDROOT
BRANCH   1   8
ATOM      3  C   UNL     1      22.529  40.806  46.931  0.00  0.00    +0.000 A 
ATOM      4  C   UNL     1      21.966  42.070  46.799  0.00  0.00    +0.000 A 
ATOM      5  C   UNL     1      22.441  39.885  45.881  0.00  0.00    +0.000 A 
ATOM      6  C   UNL     1      21.176  42.358  45.681  0.00  0.00    +0.000 A 
ATOM      7  C   UNL     1      21.650  40.171  44.771  0.00  0.00    +0.000 A 
ATOM      8  C   UNL     1      20.982  41.400  44.682  0.00  0.00    +0.000 A 
BRANCH   3   9
ATOM      9  O   UNL     1      23.119  40.489  48.139  0.00  0.00    +0.000 OA
BRANCH   9  12
ATOM     10 BR   UNL     1      25.761  40.595  46.542  0.00  0.00    +0.000 Br
ATOM     11  C   UNL     1      25.261  41.557  48.100  0.00  0.00    +0.000 A 
ATOM     12  C   UNL     1      23.998  41.420  48.674  0.00  0.00    +0.000 A 
ATOM     13  C   UNL     1      26.201  42.426  48.667  0.00  0.00    +0.000 A 
ATOM     14  C   UNL     1      23.652  42.239  49.765  0.00  0.00    +0.000 A 
ATOM     15  C   UNL     1      25.876  43.168  49.803  0.00  0.00    +0.000 A 
ATOM     16  C   UNL     1      24.596  43.084  50.344  0.00  0.00    +0.000 A 
ENDBRANCH   9  12
ENDBRANCH   3   9
ENDBRANCH   1   8
BRANCH   2  17
ATOM     17  N   UNL     1      18.043  40.307  44.399  0.00  0.00    +0.000 N 
ATOM     18  C   UNL     1      18.273  38.945  44.506  0.00  0.00    +0.000 C 
ATOM     19  O   UNL     1      18.952  38.272  43.738  0.00  0.00    +0.000 OA
ATOM     20  H   UNL     1      17.352  40.690  44.986  0.00  0.00    +0.000 HD
BRANCH  18  21
ATOM     21  C   UNL     1      17.462  38.289  45.605  0.00  0.00    +0.000 C 
BRANCH  21  22
ATOM     22  C   UNL     1      16.365  39.238  46.091  0.00  0.00    +0.000 C 
BRANCH  22  23
ATOM     23  C   UNL     1      16.942  40.535  46.592  0.00  0.00    +0.000 A 
ATOM     24  C   UNL     1      16.360  41.751  46.214  0.00  0.00    +0.000 A 
ATOM     25  C   UNL     1      18.076  40.548  47.410  0.00  0.00    +0.000 A 
ATOM     26  C   UNL     1      16.912  42.962  46.633  0.00  0.00    +0.000 A 
ATOM     27  C   UNL     1      18.628  41.761  47.830  0.00  0.00    +0.000 A 
ATOM     28  C   UNL     1      18.060  42.977  47.431  0.00  0.00    +0.000 A 
ATOM     29  C   UNL     1      18.686  44.272  47.855  0.00  0.00    +0.000 C 
ENDBRANCH  22  23
ENDBRANCH  21  22
ENDBRANCH  18  21
ENDBRANCH   2  17
BRANCH   2  30
ATOM     30  C   UNL     1      17.958  41.833  42.379  0.00  0.00    +0.000 C 
ATOM     31  O   UNL     1      17.001  41.327  41.810  0.00  0.00    +0.000 OA
ATOM     32  OXT UNL     1      18.424  43.035  41.987  0.00  0.00    +0.000 OA
ENDBRANCH   2  30
TORSDOF 8
ENDMDL
MODEL 3
REMARK VINA RESULT:      -7.5      2.776      7.020
REMARK  Name = 322374
REMARK  9 active torsions:
REMARK  status: ('A' for Active; 'I' for Inactive)
REMARK    1  A    between atoms: C_3  and  O_5
REMARK    2  A    between atoms: O_5  and  C_8
REMARK    3  A    between atoms: C_14  and  C_15
REMARK    4  A    between atoms: CA_16  and  N_17
REMARK    5  A    between atoms: CA_16  and  C_18
REMARK    6  A    between atoms: C_19  and  C_23
REMARK    7  A    between atoms: C_23  and  C_24
REMARK    8  A    between atoms: C_24  and  C_25
REMARK    9  A    between atoms: C_30  and  C_31
REMARK                            x       y       z     vdW  Elec       q    Type
REMARK                         _______ _______ _______ _____ _____    ______ ____
ROOT
ATOM      1  C   UNL     1      17.847  39.917  47.074  0.00  0.00    +0.000 C 
ATOM      2  CA  UNL     1      16.965  39.743  46.067  0.00  0.00    +0.000 C 
ENDROOT
BRANCH   1   8
ATOM      3  C   UNL     1      21.513  41.949  47.745  0.00  0.00    +0.000 A 
ATOM      4  C   UNL     1      20.330  42.678  47.700  0.00  0.00    +0.000 A 
ATOM      5  C   UNL     1      21.526  40.606  47.351  0.00  0.00    +0.000 A 
ATOM      6  C   UNL     1      19.128  42.021  47.414  0.00  0.00    +0.000 A 
ATOM      7  C   UNL     1      20.328  39.953  47.071  0.00  0.00    +0.000 A 
ATOM      8  C   UNL     1      19.115  40.652  47.137  0.00  0.00    +0.000 A 
BRANCH   3   9
ATOM      9  O   UNL     1      22.638  42.580  48.237  0.00  0.00    +0.000 OA
BRANCH   9  12
ATOM     10 BR   UNL     1      24.682  43.081  50.498  0.00  0.00    +0.000 Br
ATOM     11  C   UNL     1      24.915  42.170  48.850  0.00  0.00    +0.000 A 
ATOM     12  C   UNL     1      23.864  41.994  47.952  0.00  0.00    +0.000 A 
ATOM     13  C   UNL     1      26.187  41.664  48.552  0.00  0.00    +0.000 A 
ATOM     14  C   UNL     1      24.075  41.219  46.796  0.00  0.00    +0.000 A 
ATOM     15  C   UNL     1      26.406  40.972  47.360  0.00  0.00    +0.000 A 
ATOM     16  C   UNL     1      25.346  40.738  46.489  0.00  0.00    +0.000 A 
ENDBRANCH   9  12
ENDBRANCH   3   9
ENDBRANCH   1   8
BRANCH   2  17
ATOM     17  N   UNL     1      17.003  40.358  44.820  0.00  0.00    +0.000 N 
ATOM     18  C   UNL     1      16.846  41.712  44.569  0.00  0.00    +0.000 C 
ATOM     19  O   UNL     1      16.469  42.550  45.381  0.00  0.00    +0.000 OA
ATOM     20  H   UNL     1      17.156  39.775  44.041  0.00  0.00    +0.000 HD
BRANCH  18  21
ATOM     21  C   UNL     1      17.034  42.073  43.110  0.00  0.00    +0.000 C 
BRANCH  21  22
ATOM     22  C   UNL     1      18.410  42.708  42.896  0.00  0.00    +0.000 C 
BRANCH  22  23
ATOM     23  C   UNL     1      19.517  41.756  43.262  0.00  0.00    +0.000 A 
ATOM     24  C   UNL     1      20.707  42.248  43.814  0.00  0.00    +0.000 A 
ATOM     25  C   UNL     1      19.390  40.383  43.032  0.00  0.00    +0.000 A 
ATOM     26  C   UNL     1      21.760  41.383  44.115  0.00  0.00    +0.000 A 
ATOM     27  C   UNL     1      20.444  39.517  43.334  0.00  0.00    +0.000 A 
ATOM     28  C   UNL     1      21.642  40.012  43.863  0.00  0.00    +0.000 A 
ATOM     29  C   UNL     1      22.780  39.077  44.144  0.00  0.00    +0.000 C 
ENDBRANCH  22  23
ENDBRANCH  21  22
ENDBRANCH  18  21
ENDBRANCH   2  17
BRANCH   2  30
ATOM     30  C   UNL     1      15.899  38.714  46.399  0.00  0.00    +0.000 C 
ATOM     31  O   UNL     1      15.802  37.629  45.844  0.00  0.00    +0.000 OA
ATOM     32  OXT UNL     1      15.029  39.064  47.366  0.00  0.00    +0.000 OA
ENDBRANCH   2  30
TORSDOF 8
ENDMDL
MODEL 4
REMARK VINA RESULT:      -7.0      1.810      4.120
REMARK  Name = 322374
REMARK  9 active torsions:
REMARK  status: ('A' for Active; 'I' for Inactive)
REMARK    1  A    between atoms: C_3  and  O_5
REMARK    2  A    between atoms: O_5  and  C_8
REMARK    3  A    between atoms: C_14  and  C_15
REMARK    4  A    between atoms: CA_16  and  N_17
REMARK    5  A    between atoms: CA_16  and  C_18
REMARK    6  A    between atoms: C_19  and  C_23
REMARK    7  A    between atoms: C_23  and  C_24
REMARK    8  A    between atoms: C_24  and  C_25
REMARK    9  A    between atoms: C_30  and  C_31
REMARK                            x       y       z     vdW  Elec       q    Type
REMARK                         _______ _______ _______ _____ _____    ______ ____
ROOT
ATOM      1  C   UNL     1      24.553  41.076  46.892  0.00  0.00    +0.000 C 
ATOM      2  CA  UNL     1      24.233  41.787  47.994  0.00  0.00    +0.000 C 
ENDROOT
BRANCH   1   8
ATOM      3  C   UNL     1      21.832  39.529  44.026  0.00  0.00    +0.000 A 
ATOM      4  C   UNL     1      21.701  39.155  45.358  0.00  0.00    +0.000 A 
ATOM      5  C   UNL     1      22.972  40.218  43.597  0.00  0.00    +0.000 A 
ATOM      6  C   UNL     1      22.636  39.610  46.295  0.00  0.00    +0.000 A 
ATOM      7  C   UNL     1      23.898  40.675  44.533  0.00  0.00    +0.000 A 
ATOM      8  C   UNL     1      23.715  40.403  45.895  0.00  0.00    +0.000 A 
BRANCH   3   9
ATOM      9  O   UNL     1      20.784  39.243  43.173  0.00  0.00    +0.000 OA
BRANCH   9  12
ATOM     10 BR   UNL     1      18.228  37.696  43.958  0.00  0.00    +0.000 Br
ATOM     11  C   UNL     1      18.433  39.532  43.521  0.00  0.00    +0.000 A 
ATOM     12  C   UNL     1      19.680  40.083  43.230  0.00  0.00    +0.000 A 
ATOM     13  C   UNL     1      17.287  40.336  43.504  0.00  0.00    +0.000 A 
ATOM     14  C   UNL     1      19.780  41.471  43.018  0.00  0.00    +0.000 A 
ATOM     15  C   UNL     1      17.387  41.695  43.205  0.00  0.00    +0.000 A 
ATOM     16  C   UNL     1      18.636  42.265  42.975  0.00  0.00    +0.000 A 
ENDBRANCH   9  12
ENDBRANCH   3   9
ENDBRANCH   1   8
BRANCH   2  17
ATOM     17  N   UNL     1      22.954  42.165  48.391  0.00  0.00    +0.000 N 
ATOM     18  C   UNL     1      21.936  42.606  47.561  0.00  0.00    +0.000 C 
ATOM     19  O   UNL     1      22.058  42.905  46.378  0.00  0.00    +0.000 OA
ATOM     20  H   UNL     1      22.754  42.114  49.353  0.00  0.00    +0.000 HD
BRANCH  18  21
ATOM     21  C   UNL     1      20.633  42.851  48.294  0.00  0.00    +0.000 C 
BRANCH  21  22
ATOM     22  C   UNL     1      19.528  43.214  47.300  0.00  0.00    +0.000 C 
BRANCH  22  23
ATOM     23  C   UNL     1      18.572  42.069  47.098  0.00  0.00    +0.000 A 
ATOM     24  C   UNL     1      17.229  42.325  46.797  0.00  0.00    +0.000 A 
ATOM     25  C   UNL     1      18.998  40.744  47.237  0.00  0.00    +0.000 A 
ATOM     26  C   UNL     1      16.321  41.275  46.653  0.00  0.00    +0.000 A 
ATOM     27  C   UNL     1      18.090  39.693  47.092  0.00  0.00    +0.000 A 
ATOM     28  C   UNL     1      16.741  39.951  46.815  0.00  0.00    +0.000 A 
ATOM     29  C   UNL     1      15.768  38.815  46.703  0.00  0.00    +0.000 C 
ENDBRANCH  22  23
ENDBRANCH  21  22
ENDBRANCH  18  21
ENDBRANCH   2  17
BRANCH   2  30
ATOM     30  C   UNL     1      25.444  42.107  48.851  0.00  0.00    +0.000 C 
ATOM     31  O   UNL     1      25.416  42.854  49.819  0.00  0.00    +0.000 OA
ATOM     32  OXT UNL     1      26.596  41.513  48.483  0.00  0.00    +0.000 OA
ENDBRANCH   2  30
TORSDOF 8
ENDMDL
MODEL 5
REMARK VINA RESULT:      -6.8      2.706      7.109
REMARK  Name = 322374
REMARK  9 active torsions:
REMARK  status: ('A' for Active; 'I' for Inactive)
REMARK    1  A    between atoms: C_3  and  O_5
REMARK    2  A    between atoms: O_5  and  C_8
REMARK    3  A    between atoms: C_14  and  C_15
REMARK    4  A    between atoms: CA_16  and  N_17
REMARK    5  A    between atoms: CA_16  and  C_18
REMARK    6  A    between atoms: C_19  and  C_23
REMARK    7  A    between atoms: C_23  and  C_24
REMARK    8  A    between atoms: C_24  and  C_25
REMARK    9  A    between atoms: C_30  and  C_31
REMARK                            x       y       z     vdW  Elec       q    Type
REMARK                         _______ _______ _______ _____ _____    ______ ____
ROOT
ATOM      1  C   UNL     1      18.020  40.000  47.300  0.00  0.00    +0.000 C 
ATOM      2  CA  UNL     1      17.031  40.164  46.396  0.00  0.00    +0.000 C 
ENDROOT
BRANCH   1   8
ATOM      3  C   UNL     1      21.863  41.789  47.098  0.00  0.00    +0.000 A 
ATOM      4  C   UNL     1      21.762  40.405  47.186  0.00  0.00    +0.000 A 
ATOM      5  C   UNL     1      20.735  42.592  47.301  0.00  0.00    +0.000 A 
ATOM      6  C   UNL     1      20.500  39.816  47.319  0.00  0.00    +0.000 A 
ATOM      7  C   UNL     1      19.479  42.002  47.428  0.00  0.00    +0.000 A 
ATOM      8  C   UNL     1      19.350  40.607  47.402  0.00  0.00    +0.000 A 
BRANCH   3   9
ATOM      9  O   UNL     1      23.090  42.322  46.753  0.00  0.00    +0.000 OA
BRANCH   9  12
ATOM     10 BR   UNL     1      25.533  40.648  45.877  0.00  0.00    +0.000 Br
ATOM     11  C   UNL     1      25.228  41.560  47.514  0.00  0.00    +0.000 A 
ATOM     12  C   UNL     1      24.076  42.314  47.730  0.00  0.00    +0.000 A 
ATOM     13  C   UNL     1      26.204  41.461  48.513  0.00  0.00    +0.000 A 
ATOM     14  C   UNL     1      23.958  43.051  48.924  0.00  0.00    +0.000 A 
ATOM     15  C   UNL     1      26.033  42.127  49.728  0.00  0.00    +0.000 A 
ATOM     16  C   UNL     1      24.916  42.933  49.928  0.00  0.00    +0.000 A 
ENDBRANCH   9  12
ENDBRANCH   3   9
ENDBRANCH   1   8
BRANCH   2  17
ATOM     17  N   UNL     1      17.003  41.093  45.361  0.00  0.00    +0.000 N 
ATOM     18  C   UNL     1      16.820  42.460  45.491  0.00  0.00    +0.000 C 
ATOM     19  O   UNL     1      16.473  43.039  46.515  0.00  0.00    +0.000 OA
ATOM     20  H   UNL     1      17.125  40.745  44.448  0.00  0.00    +0.000 HD
BRANCH  18  21
ATOM     21  C   UNL     1      16.935  43.205  44.178  0.00  0.00    +0.000 C 
BRANCH  21  22
ATOM     22  C   UNL     1      17.230  42.226  43.039  0.00  0.00    +0.000 C 
BRANCH  22  23
ATOM     23  C   UNL     1      18.568  41.561  43.219  0.00  0.00    +0.000 A 
ATOM     24  C   UNL     1      18.658  40.164  43.233  0.00  0.00    +0.000 A 
ATOM     25  C   UNL     1      19.729  42.320  43.403  0.00  0.00    +0.000 A 
ATOM     26  C   UNL     1      19.885  39.534  43.444  0.00  0.00    +0.000 A 
ATOM     27  C   UNL     1      20.957  41.690  43.614  0.00  0.00    +0.000 A 
ATOM     28  C   UNL     1      21.042  40.292  43.653  0.00  0.00    +0.000 A 
ATOM     29  C   UNL     1      22.360  39.629  43.921  0.00  0.00    +0.000 C 
ENDBRANCH  22  23
ENDBRANCH  21  22
ENDBRANCH  18  21
ENDBRANCH   2  17
BRANCH   2  30
ATOM     30  C   UNL     1      15.911  39.153  46.569  0.00  0.00    +0.000 C 
ATOM     31  O   UNL     1      15.000  39.275  47.375  0.00  0.00    +0.000 OA
ATOM     32  OXT UNL     1      15.970  38.072  45.768  0.00  0.00    +0.000 OA
ENDBRANCH   2  30
TORSDOF 8
ENDMDL
MODEL 6
REMARK VINA RESULT:      -6.3      1.574      2.324
REMARK  Name = 322374
REMARK  9 active torsions:
REMARK  status: ('A' for Active; 'I' for Inactive)
REMARK    1  A    between atoms: C_3  and  O_5
REMARK    2  A    between atoms: O_5  and  C_8
REMARK    3  A    between atoms: C_14  and  C_15
REMARK    4  A    between atoms: CA_16  and  N_17
REMARK    5  A    between atoms: CA_16  and  C_18
REMARK    6  A    between atoms: C_19  and  C_23
REMARK    7  A    between atoms: C_23  and  C_24
REMARK    8  A    between atoms: C_24  and  C_25
REMARK    9  A    between atoms: C_30  and  C_31
REMARK                            x       y       z     vdW  Elec       q    Type
REMARK                         _______ _______ _______ _____ _____    ______ ____
ROOT
ATOM      1  C   UNL     1      22.474  42.328  48.527  0.00  0.00    +0.000 C 
ATOM      2  CA  UNL     1      23.800  42.113  48.659  0.00  0.00    +0.000 C 
ENDROOT
BRANCH   1   8
ATOM      3  C   UNL     1      19.434  41.634  45.647  0.00  0.00    +0.000 A 
ATOM      4  C   UNL     1      19.901  40.571  46.413  0.00  0.00    +0.000 A 
ATOM      5  C   UNL     1      20.107  42.860  45.662  0.00  0.00    +0.000 A 
ATOM      6  C   UNL     1      20.948  40.783  47.315  0.00  0.00    +0.000 A 
ATOM      7  C   UNL     1      21.147  43.070  46.566  0.00  0.00    +0.000 A 
ATOM      8  C   UNL     1      21.550  42.039  47.425  0.00  0.00    +0.000 A 
BRANCH   3   9
ATOM      9  O   UNL     1      18.268  41.445  44.930  0.00  0.00    +0.000 OA
BRANCH   9  12
ATOM     10 BR   UNL     1      16.602  42.450  47.328  0.00  0.00    +0.000 Br
ATOM     11  C   UNL     1      16.608  40.741  46.503  0.00  0.00    +0.000 A 
ATOM     12  C   UNL     1      17.398  40.466  45.389  0.00  0.00    +0.000 A 
ATOM     13  C   UNL     1      15.782  39.748  47.043  0.00  0.00    +0.000 A 
ATOM     14  C   UNL     1      17.279  39.212  44.760  0.00  0.00    +0.000 A 
ATOM     15  C   UNL     1      15.738  38.479  46.462  0.00  0.00    +0.000 A 
ATOM     16  C   UNL     1      16.476  38.216  45.312  0.00  0.00    +0.000 A 
ENDBRANCH   9  12
ENDBRANCH   3   9
ENDBRANCH   1   8
BRANCH   2  17
ATOM     17  N   UNL     1      24.617  41.418  47.773  0.00  0.00    +0.000 N 
ATOM     18  C   UNL     1      24.552  40.062  47.491  0.00  0.00    +0.000 C 
ATOM     19  O   UNL     1      23.891  39.235  48.109  0.00  0.00    +0.000 OA
ATOM     20  H   UNL     1      25.307  41.938  47.302  0.00  0.00    +0.000 HD
BRANCH  18  21
ATOM     21  C   UNL     1      25.522  39.631  46.411  0.00  0.00    +0.000 C 
BRANCH  21  22
ATOM     22  C   UNL     1      25.250  40.404  45.118  0.00  0.00    +0.000 C 
BRANCH  22  23
ATOM     23  C   UNL     1      23.865  40.129  44.594  0.00  0.00    +0.000 A 
ATOM     24  C   UNL     1      23.299  38.858  44.747  0.00  0.00    +0.000 A 
ATOM     25  C   UNL     1      23.141  41.121  43.925  0.00  0.00    +0.000 A 
ATOM     26  C   UNL     1      22.036  38.576  44.226  0.00  0.00    +0.000 A 
ATOM     27  C   UNL     1      21.876  40.839  43.404  0.00  0.00    +0.000 A 
ATOM     28  C   UNL     1      21.321  39.560  43.536  0.00  0.00    +0.000 A 
ATOM     29  C   UNL     1      19.980  39.259  42.936  0.00  0.00    +0.000 C 
ENDBRANCH  22  23
ENDBRANCH  21  22
ENDBRANCH  18  21
ENDBRANCH   2  17
BRANCH   2  30
ATOM     30  C   UNL     1      24.378  42.784  49.892  0.00  0.00    +0.000 C 
ATOM     31  O   UNL     1      23.785  42.883  50.956  0.00  0.00    +0.000 OA
ATOM     32  OXT UNL     1      25.620  43.288  49.756  0.00  0.00    +0.000 OA
ENDBRANCH   2  30
TORSDOF 8
ENDMDL
MODEL 7
REMARK VINA RESULT:      -6.1      1.935      4.096
REMARK  Name = 322374
REMARK  9 active torsions:
REMARK  status: ('A' for Active; 'I' for Inactive)
REMARK    1  A    between atoms: C_3  and  O_5
REMARK    2  A    between atoms: O_5  and  C_8
REMARK    3  A    between atoms: C_14  and  C_15
REMARK    4  A    between atoms: CA_16  and  N_17
REMARK    5  A    between atoms: CA_16  and  C_18
REMARK    6  A    between atoms: C_19  and  C_23
REMARK    7  A    between atoms: C_23  and  C_24
REMARK    8  A    between atoms: C_24  and  C_25
REMARK    9  A    between atoms: C_30  and  C_31
REMARK                            x       y       z     vdW  Elec       q    Type
REMARK                         _______ _______ _______ _____ _____    ______ ____
ROOT
ATOM      1  C   UNL     1      23.530  40.250  44.776  0.00  0.00    +0.000 C 
ATOM      2  CA  UNL     1      23.915  41.033  45.805  0.00  0.00    +0.000 C 
ENDROOT
BRANCH   1   8
ATOM      3  C   UNL     1      19.514  39.556  43.592  0.00  0.00    +0.000 A 
ATOM      4  C   UNL     1      20.302  38.480  43.986  0.00  0.00    +0.000 A 
ATOM      5  C   UNL     1      20.095  40.809  43.370  0.00  0.00    +0.000 A 
ATOM      6  C   UNL     1      21.645  38.696  44.314  0.00  0.00    +0.000 A 
ATOM      7  C   UNL     1      21.431  41.023  43.702  0.00  0.00    +0.000 A 
ATOM      8  C   UNL     1      22.206  39.972  44.211  0.00  0.00    +0.000 A 
BRANCH   3   9
ATOM      9  O   UNL     1      18.152  39.349  43.485  0.00  0.00    +0.000 OA
BRANCH   9  12
ATOM     10 BR   UNL     1      17.450  36.401  44.083  0.00  0.00    +0.000 Br
ATOM     11  C   UNL     1      16.999  37.965  45.060  0.00  0.00    +0.000 A 
ATOM     12  C   UNL     1      17.439  39.227  44.669  0.00  0.00    +0.000 A 
ATOM     13  C   UNL     1      16.205  37.819  46.204  0.00  0.00    +0.000 A 
ATOM     14  C   UNL     1      17.159  40.333  45.494  0.00  0.00    +0.000 A 
ATOM     15  C   UNL     1      15.859  38.936  46.966  0.00  0.00    +0.000 A 
ATOM     16  C   UNL     1      16.348  40.192  46.618  0.00  0.00    +0.000 A 
ENDBRANCH   9  12
ENDBRANCH   3   9
ENDBRANCH   1   8
BRANCH   2  17
ATOM     17  N   UNL     1      23.104  41.900  46.532  0.00  0.00    +0.000 N 
ATOM     18  C   UNL     1      22.162  41.538  47.481  0.00  0.00    +0.000 C 
ATOM     19  O   UNL     1      21.767  40.397  47.696  0.00  0.00    +0.000 OA
ATOM     20  H   UNL     1      23.211  42.862  46.355  0.00  0.00    +0.000 HD
BRANCH  18  21
ATOM     21  C   UNL     1      21.511  42.725  48.159  0.00  0.00    +0.000 C 
BRANCH  21  22
ATOM     22  C   UNL     1      20.056  42.404  48.504  0.00  0.00    +0.000 C 
BRANCH  22  23
ATOM     23  C   UNL     1      19.119  42.863  47.419  0.00  0.00    +0.000 A 
ATOM     24  C   UNL     1      17.809  43.240  47.739  0.00  0.00    +0.000 A 
ATOM     25  C   UNL     1      19.527  42.889  46.081  0.00  0.00    +0.000 A 
ATOM     26  C   UNL     1      16.916  43.623  46.738  0.00  0.00    +0.000 A 
ATOM     27  C   UNL     1      18.633  43.273  45.079  0.00  0.00    +0.000 A 
ATOM     28  C   UNL     1      17.316  43.627  45.398  0.00  0.00    +0.000 A 
ATOM     29  C   UNL     1      16.354  43.998  44.308  0.00  0.00    +0.000 C 
ENDBRANCH  22  23
ENDBRANCH  21  22
ENDBRANCH  18  21
ENDBRANCH   2  17
BRANCH   2  30
ATOM     30  C   UNL     1      25.375  40.837  46.172  0.00  0.00    +0.000 C 
ATOM     31  O   UNL     1      26.048  39.883  45.808  0.00  0.00    +0.000 OA
ATOM     32  OXT UNL     1      25.917  41.795  46.949  0.00  0.00    +0.000 OA
ENDBRANCH   2  30
TORSDOF 8
ENDMDL
MODEL 8
REMARK VINA RESULT:      -5.8      1.612      2.096
REMARK  Name = 322374
REMARK  9 active torsions:
REMARK  status: ('A' for Active; 'I' for Inactive)
REMARK    1  A    between atoms: C_3  and  O_5
REMARK    2  A    between atoms: O_5  and  C_8
REMARK    3  A    between atoms: C_14  and  C_15
REMARK    4  A    between atoms: CA_16  and  N_17
REMARK    5  A    between atoms: CA_16  and  C_18
REMARK    6  A    between atoms: C_19  and  C_23
REMARK    7  A    between atoms: C_23  and  C_24
REMARK    8  A    between atoms: C_24  and  C_25
REMARK    9  A    between atoms: C_30  and  C_31
REMARK                            x       y       z     vdW  Elec       q    Type
REMARK                         _______ _______ _______ _____ _____    ______ ____
ROOT
ATOM      1  C   UNL     1      22.730  42.500  48.813  0.00  0.00    +0.000 C 
ATOM      2  CA  UNL     1      24.044  42.200  48.732  0.00  0.00    +0.000 C 
ENDROOT
BRANCH   1   8
ATOM      3  C   UNL     1      19.514  42.828  46.063  0.00  0.00    +0.000 A 
ATOM      4  C   UNL     1      19.310  42.174  47.272  0.00  0.00    +0.000 A 
ATOM      5  C   UNL     1      20.809  43.172  45.659  0.00  0.00    +0.000 A 
ATOM      6  C   UNL     1      20.384  42.006  48.152  0.00  0.00    +0.000 A 
ATOM      7  C   UNL     1      21.876  43.008  46.540  0.00  0.00    +0.000 A 
ATOM      8  C   UNL     1      21.662  42.455  47.809  0.00  0.00    +0.000 A 
BRANCH   3   9
ATOM      9  O   UNL     1      18.400  43.166  45.319  0.00  0.00    +0.000 OA
BRANCH   9  12
ATOM     10 BR   UNL     1      19.007  43.533  42.313  0.00  0.00    +0.000 Br
ATOM     11  C   UNL     1      17.959  42.205  43.172  0.00  0.00    +0.000 A 
ATOM     12  C   UNL     1      17.823  42.158  44.558  0.00  0.00    +0.000 A 
ATOM     13  C   UNL     1      17.318  41.252  42.369  0.00  0.00    +0.000 A 
ATOM     14  C   UNL     1      17.119  41.087  45.139  0.00  0.00    +0.000 A 
ATOM     15  C   UNL     1      16.549  40.245  42.954  0.00  0.00    +0.000 A 
ATOM     16  C   UNL     1      16.461  40.155  44.340  0.00  0.00    +0.000 A 
ENDBRANCH   9  12
ENDBRANCH   3   9
ENDBRANCH   1   8
BRANCH   2  17
ATOM     17  N   UNL     1      24.697  41.633  47.642  0.00  0.00    +0.000 N 
ATOM     18  C   UNL     1      24.627  40.307  47.245  0.00  0.00    +0.000 C 
ATOM     19  O   UNL     1      24.129  39.393  47.893  0.00  0.00    +0.000 OA
ATOM     20  H   UNL     1      25.263  42.231  47.102  0.00  0.00    +0.000 HD
BRANCH  18  21
ATOM     21  C   UNL     1      25.382  40.029  45.962  0.00  0.00    +0.000 C 
BRANCH  21  22
ATOM     22  C   UNL     1      24.778  40.832  44.809  0.00  0.00    +0.000 C 
BRANCH  22  23
ATOM     23  C   UNL     1      23.434  40.289  44.404  0.00  0.00    +0.000 A 
ATOM     24  C   UNL     1      22.513  41.117  43.750  0.00  0.00    +0.000 A 
ATOM     25  C   UNL     1      23.074  38.970  44.698  0.00  0.00    +0.000 A 
ATOM     26  C   UNL     1      21.247  40.640  43.411  0.00  0.00    +0.000 A 
ATOM     27  C   UNL     1      21.806  38.493  44.358  0.00  0.00    +0.000 A 
ATOM     28  C   UNL     1      20.877  39.329  43.726  0.00  0.00    +0.000 A 
ATOM     29  C   UNL     1      19.506  38.816  43.403  0.00  0.00    +0.000 C 
ENDBRANCH  22  23
ENDBRANCH  21  22
ENDBRANCH  18  21
ENDBRANCH   2  17
BRANCH   2  30
ATOM     30  C   UNL     1      24.812  42.614  49.974  0.00  0.00    +0.000 C 
ATOM     31  O   UNL     1      25.995  42.925  49.973  0.00  0.00    +0.000 OA
ATOM     32  OXT UNL     1      24.109  42.619  51.123  0.00  0.00    +0.000 OA
ENDBRANCH   2  30
TORSDOF 8
ENDMDL
MODEL 9
REMARK VINA RESULT:      -5.8      3.076      7.276
REMARK  Name = 322374
REMARK  9 active torsions:
REMARK  status: ('A' for Active; 'I' for Inactive)
REMARK    1  A    between atoms: C_3  and  O_5
REMARK    2  A    between atoms: O_5  and  C_8
REMARK    3  A    between atoms: C_14  and  C_15
REMARK    4  A    between atoms: CA_16  and  N_17
REMARK    5  A    between atoms: CA_16  and  C_18
REMARK    6  A    between atoms: C_19  and  C_23
REMARK    7  A    between atoms: C_23  and  C_24
REMARK    8  A    between atoms: C_24  and  C_25
REMARK    9  A    between atoms: C_30  and  C_31
REMARK                            x       y       z     vdW  Elec       q    Type
REMARK                         _______ _______ _______ _____ _____    ______ ____
ROOT
ATOM      1  C   UNL     1      18.697  41.727  42.723  0.00  0.00    +0.000 C 
ATOM      2  CA  UNL     1      17.587  40.982  42.910  0.00  0.00    +0.000 C 
ENDROOT
BRANCH   1   8
ATOM      3  C   UNL     1      21.694  42.381  45.658  0.00  0.00    +0.000 A 
ATOM      4  C   UNL     1      20.802  43.405  45.357  0.00  0.00    +0.000 A 
ATOM      5  C   UNL     1      21.750  41.239  44.852  0.00  0.00    +0.000 A 
ATOM      6  C   UNL     1      19.855  43.216  44.344  0.00  0.00    +0.000 A 
ATOM      7  C   UNL     1      20.803  41.050  43.848  0.00  0.00    +0.000 A 
ATOM      8  C   UNL     1      19.825  42.026  43.612  0.00  0.00    +0.000 A 
BRANCH   3   9
ATOM      9  O   UNL     1      22.466  42.517  46.795  0.00  0.00    +0.000 OA
BRANCH   9  12
ATOM     10 BR   UNL     1      23.888  43.083  49.477  0.00  0.00    +0.000 Br
ATOM     11  C   UNL     1      23.663  41.435  48.563  0.00  0.00    +0.000 A 
ATOM     12  C   UNL     1      22.948  41.349  47.370  0.00  0.00    +0.000 A 
ATOM     13  C   UNL     1      24.235  40.288  49.126  0.00  0.00    +0.000 A 
ATOM     14  C   UNL     1      22.727  40.082  46.797  0.00  0.00    +0.000 A 
ATOM     15  C   UNL     1      24.084  39.049  48.501  0.00  0.00    +0.000 A 
ATOM     16  C   UNL     1      23.318  38.945  47.343  0.00  0.00    +0.000 A 
ENDBRANCH   9  12
ENDBRANCH   3   9
ENDBRANCH   1   8
BRANCH   2  17
ATOM     17  N   UNL     1      17.303  40.184  44.015  0.00  0.00    +0.000 N 
ATOM     18  C   UNL     1      17.906  38.977  44.329  0.00  0.00    +0.000 C 
ATOM     19  O   UNL     1      18.650  38.337  43.593  0.00  0.00    +0.000 OA
ATOM     20  H   UNL     1      16.607  40.508  44.630  0.00  0.00    +0.000 HD
BRANCH  18  21
ATOM     21  C   UNL     1      17.437  38.403  45.650  0.00  0.00    +0.000 C 
BRANCH  21  22
ATOM     22  C   UNL     1      16.404  39.330  46.292  0.00  0.00    +0.000 C 
BRANCH  22  23
ATOM     23  C   UNL     1      17.015  40.650  46.679  0.00  0.00    +0.000 A 
ATOM     24  C   UNL     1      18.234  40.681  47.368  0.00  0.00    +0.000 A 
ATOM     25  C   UNL     1      16.367  41.855  46.388  0.00  0.00    +0.000 A 
ATOM     26  C   UNL     1      18.789  41.895  47.774  0.00  0.00    +0.000 A 
ATOM     27  C   UNL     1      16.923  43.070  46.795  0.00  0.00    +0.000 A 
ATOM     28  C   UNL     1      18.129  43.098  47.505  0.00  0.00    +0.000 A 
ATOM     29  C   UNL     1      18.695  44.407  47.971  0.00  0.00    +0.000 C 
ENDBRANCH  22  23
ENDBRANCH  21  22
ENDBRANCH  18  21
ENDBRANCH   2  17
BRANCH   2  30
ATOM     30  C   UNL     1      16.583  41.142  41.783  0.00  0.00    +0.000 C 
ATOM     31  O   UNL     1      15.460  40.658  41.796  0.00  0.00    +0.000 OA
ATOM     32  OXT UNL     1      17.000  41.864  40.726  0.00  0.00    +0.000 OA
ENDBRANCH   2  30
TORSDOF 8
ENDMDL
