MODEL 1
REMARK VINA RESULT:      -7.3      0.000      0.000
REMARK  Name = 323549
REMARK  8 active torsions:
REMARK  status: ('A' for Active; 'I' for Inactive)
REMARK    1  A    between atoms: C_3  and  O_5
REMARK    2  A    between atoms: O_5  and  C_8
REMARK    3  A    between atoms: C_14  and  C_15
REMARK    4  A    between atoms: CA_16  and  N_17
REMARK    5  A    between atoms: CA_16  and  C_18
REMARK    6  A    between atoms: C_19  and  C_23
REMARK    7  A    between atoms: C_23  and  O_24
REMARK    8  A    between atoms: C_23  and  C_25
REMARK                            x       y       z     vdW  Elec       q    Type
REMARK                         _______ _______ _______ _____ _____    ______ ____
ROOT
ATOM      1  C   UNL     1      22.120  42.206  48.412  0.00  0.00    +0.000 C 
ATOM      2  CA  UNL     1      23.049  41.320  48.004  0.00  0.00    +0.000 C 
ENDROOT
BRANCH   1   8
ATOM      3  C   UNL     1      18.262  42.712  46.752  0.00  0.00    +0.000 A 
ATOM      4  C   UNL     1      19.351  42.531  45.902  0.00  0.00    +0.000 A 
ATOM      5  C   UNL     1      18.473  42.999  48.104  0.00  0.00    +0.000 A 
ATOM      6  C   UNL     1      20.645  42.478  46.431  0.00  0.00    +0.000 A 
ATOM      7  C   UNL     1      19.762  42.926  48.636  0.00  0.00    +0.000 A 
ATOM      8  C   UNL     1      20.851  42.617  47.808  0.00  0.00    +0.000 A 
BRANCH   3   9
ATOM      9  O   UNL     1      17.002  42.583  46.207  0.00  0.00    +0.000 OA
BRANCH   9  12
ATOM     10  I   UNL     1      16.523  39.464  46.886  0.00  0.00    +0.000 I 
ATOM     11  C   UNL     1      16.689  40.493  45.070  0.00  0.00    +0.000 A 
ATOM     12  C   UNL     1      16.870  41.883  45.018  0.00  0.00    +0.000 A 
ATOM     13  C   UNL     1      16.603  39.745  43.889  0.00  0.00    +0.000 A 
ATOM     14  C   UNL     1      16.870  42.515  43.763  0.00  0.00    +0.000 A 
ATOM     15  C   UNL     1      16.675  40.381  42.648  0.00  0.00    +0.000 A 
ATOM     16  C   UNL     1      16.796  41.766  42.586  0.00  0.00    +0.000 A 
ENDBRANCH   9  12
ENDBRANCH   3   9
ENDBRANCH   1   8
BRANCH   2  17
ATOM     17  N   UNL     1      22.973  40.437  46.945  0.00  0.00    +0.000 N 
ATOM     18  C   UNL     1      24.028  40.162  46.085  0.00  0.00    +0.000 C 
ATOM     19  O   UNL     1      25.127  40.715  46.146  0.00  0.00    +0.000 OA
ATOM     20  H   UNL     1      22.118  39.973  46.790  0.00  0.00    +0.000 HD
BRANCH  18  21
ATOM     21  C   UNL     1      23.656  39.260  44.894  0.00  0.00    +0.000 C 
BRANCH  21  22
ATOM     22  C   UNL     1      22.362  39.628  44.198  0.00  0.00    +0.000 A 
ATOM     23  C   UNL     1      21.236  38.789  44.248  0.00  0.00    +0.000 A 
ATOM     24  C   UNL     1      22.239  40.864  43.540  0.00  0.00    +0.000 A 
ATOM     25  C   UNL     1      20.046  39.154  43.614  0.00  0.00    +0.000 A 
ATOM     26  C   UNL     1      21.048  41.228  42.907  0.00  0.00    +0.000 A 
ATOM     27  C   UNL     1      19.954  40.369  42.939  0.00  0.00    +0.000 A 
ENDBRANCH  21  22
BRANCH  21  28
ATOM     28  O   UNL     1      23.564  37.948  45.470  0.00  0.00    +0.000 OA
ATOM     29  H   UNL     1      22.731  37.867  45.960  0.00  0.00    +0.000 HD
ENDBRANCH  21  28
ENDBRANCH  18  21
ENDBRANCH   2  17
BRANCH   2  30
ATOM     30  C   UNL     1      24.331  41.345  48.790  0.00  0.00    +0.000 C 
ATOM     31  O   UNL     1      25.065  42.308  48.916  0.00  0.00    +0.000 OA
ATOM     32  OXT UNL     1      24.588  40.134  49.335  0.00  0.00    +0.000 OA
ENDBRANCH   2  30
TORSDOF 8
ENDMDL
MODEL 2
REMARK VINA RESULT:      -7.1      1.454      1.964
REMARK  Name = 323549
REMARK  8 active torsions:
REMARK  status: ('A' for Active; 'I' for Inactive)
REMARK    1  A    between atoms: C_3  and  O_5
REMARK    2  A    between atoms: O_5  and  C_8
REMARK    3  A    between atoms: C_14  and  C_15
REMARK    4  A    between atoms: CA_16  and  N_17
REMARK    5  A    between atoms: CA_16  and  C_18
REMARK    6  A    between atoms: C_19  and  C_23
REMARK    7  A    between atoms: C_23  and  O_24
REMARK    8  A    between atoms: C_23  and  C_25
REMARK                            x       y       z     vdW  Elec       q    Type
REMARK                         _______ _______ _______ _____ _____    ______ ____
ROOT
ATOM      1  C   UNL     1      22.104  42.573  48.648  0.00  0.00    +0.000 C 
ATOM      2  CA  UNL     1      23.220  41.918  48.276  0.00  0.00    +0.000 C 
ENDROOT
BRANCH   1   8
ATOM      3  C   UNL     1      18.316  42.389  46.773  0.00  0.00    +0.000 A 
ATOM      4  C   UNL     1      19.466  42.380  45.987  0.00  0.00    +0.000 A 
ATOM      5  C   UNL     1      18.399  42.732  48.126  0.00  0.00    +0.000 A 
ATOM      6  C   UNL     1      20.719  42.556  46.585  0.00  0.00    +0.000 A 
ATOM      7  C   UNL     1      19.650  42.887  48.727  0.00  0.00    +0.000 A 
ATOM      8  C   UNL     1      20.820  42.752  47.967  0.00  0.00    +0.000 A 
BRANCH   3   9
ATOM      9  O   UNL     1      17.128  42.039  46.166  0.00  0.00    +0.000 OA
BRANCH   9  12
ATOM     10  I   UNL     1      17.428  41.209  43.060  0.00  0.00    +0.000 I 
ATOM     11  C   UNL     1      16.861  40.117  44.755  0.00  0.00    +0.000 A 
ATOM     12  C   UNL     1      16.831  40.692  46.033  0.00  0.00    +0.000 A 
ATOM     13  C   UNL     1      16.517  38.771  44.575  0.00  0.00    +0.000 A 
ATOM     14  C   UNL     1      16.541  39.869  47.134  0.00  0.00    +0.000 A 
ATOM     15  C   UNL     1      16.163  37.984  45.672  0.00  0.00    +0.000 A 
ATOM     16  C   UNL     1      16.187  38.530  46.952  0.00  0.00    +0.000 A 
ENDBRANCH   9  12
ENDBRANCH   3   9
ENDBRANCH   1   8
BRANCH   2  17
ATOM     17  N   UNL     1      23.398  41.099  47.177  0.00  0.00    +0.000 N 
ATOM     18  C   UNL     1      23.661  39.738  47.257  0.00  0.00    +0.000 C 
ATOM     19  O   UNL     1      23.814  39.128  48.317  0.00  0.00    +0.000 OA
ATOM     20  H   UNL     1      23.334  41.505  46.283  0.00  0.00    +0.000 HD
BRANCH  18  21
ATOM     21  C   UNL     1      23.969  39.071  45.904  0.00  0.00    +0.000 C 
BRANCH  21  22
ATOM     22  C   UNL     1      23.015  39.435  44.784  0.00  0.00    +0.000 A 
ATOM     23  C   UNL     1      21.879  38.658  44.505  0.00  0.00    +0.000 A 
ATOM     24  C   UNL     1      23.213  40.611  44.041  0.00  0.00    +0.000 A 
ATOM     25  C   UNL     1      21.002  39.019  43.480  0.00  0.00    +0.000 A 
ATOM     26  C   UNL     1      22.335  40.972  43.016  0.00  0.00    +0.000 A 
ATOM     27  C   UNL     1      21.233  40.171  42.732  0.00  0.00    +0.000 A 
ENDBRANCH  21  22
BRANCH  21  28
ATOM     28  O   UNL     1      23.901  37.666  46.188  0.00  0.00    +0.000 OA
ATOM     29  H   UNL     1      24.475  37.183  45.574  0.00  0.00    +0.000 HD
ENDBRANCH  21  28
ENDBRANCH  18  21
ENDBRANCH   2  17
BRANCH   2  30
ATOM     30  C   UNL     1      24.415  42.157  49.157  0.00  0.00    +0.000 C 
ATOM     31  O   UNL     1      25.579  42.071  48.812  0.00  0.00    +0.000 OA
ATOM     32  OXT UNL     1      24.032  42.465  50.418  0.00  0.00    +0.000 OA
ENDBRANCH   2  30
TORSDOF 8
ENDMDL
MODEL 3
REMARK VINA RESULT:      -6.9      2.896      7.010
REMARK  Name = 323549
REMARK  8 active torsions:
REMARK  status: ('A' for Active; 'I' for Inactive)
REMARK    1  A    between atoms: C_3  and  O_5
REMARK    2  A    between atoms: O_5  and  C_8
REMARK    3  A    between atoms: C_14  and  C_15
REMARK    4  A    between atoms: CA_16  and  N_17
REMARK    5  A    between atoms: CA_16  and  C_18
REMARK    6  A    between atoms: C_19  and  C_23
REMARK    7  A    between atoms: C_23  and  O_24
REMARK    8  A    between atoms: C_23  and  C_25
REMARK                            x       y       z     vdW  Elec       q    Type
REMARK                         _______ _______ _______ _____ _____    ______ ____
ROOT
ATOM      1  C   UNL     1      18.770  43.331  45.357  0.00  0.00    +0.000 C 
ATOM      2  CA  UNL     1      17.994  42.511  44.623  0.00  0.00    +0.000 C 
ENDROOT
BRANCH   1   8
ATOM      3  C   UNL     1      21.930  41.847  47.746  0.00  0.00    +0.000 A 
ATOM      4  C   UNL     1      20.644  41.906  48.279  0.00  0.00    +0.000 A 
ATOM      5  C   UNL     1      22.223  42.518  46.555  0.00  0.00    +0.000 A 
ATOM      6  C   UNL     1      19.614  42.501  47.542  0.00  0.00    +0.000 A 
ATOM      7  C   UNL     1      21.192  43.093  45.811  0.00  0.00    +0.000 A 
ATOM      8  C   UNL     1      19.871  43.045  46.279  0.00  0.00    +0.000 A 
BRANCH   3   9
ATOM      9  O   UNL     1      22.867  41.101  48.431  0.00  0.00    +0.000 OA
BRANCH   9  12
ATOM     10  I   UNL     1      25.390  40.488  46.513  0.00  0.00    +0.000 I 
ATOM     11  C   UNL     1      25.210  41.596  48.280  0.00  0.00    +0.000 A 
ATOM     12  C   UNL     1      23.981  41.751  48.937  0.00  0.00    +0.000 A 
ATOM     13  C   UNL     1      26.368  42.196  48.792  0.00  0.00    +0.000 A 
ATOM     14  C   UNL     1      23.920  42.593  50.061  0.00  0.00    +0.000 A 
ATOM     15  C   UNL     1      26.302  42.973  49.950  0.00  0.00    +0.000 A 
ATOM     16  C   UNL     1      25.077  43.181  50.576  0.00  0.00    +0.000 A 
ENDBRANCH   9  12
ENDBRANCH   3   9
ENDBRANCH   1   8
BRANCH   2  17
ATOM     17  N   UNL     1      18.136  41.149  44.436  0.00  0.00    +0.000 N 
ATOM     18  C   UNL     1      19.241  40.558  43.839  0.00  0.00    +0.000 C 
ATOM     19  O   UNL     1      20.189  41.189  43.368  0.00  0.00    +0.000 OA
ATOM     20  H   UNL     1      17.408  40.562  44.745  0.00  0.00    +0.000 HD
BRANCH  18  21
ATOM     21  C   UNL     1      19.101  39.042  43.608  0.00  0.00    +0.000 C 
BRANCH  21  22
ATOM     22  C   UNL     1      18.091  38.353  44.501  0.00  0.00    +0.000 A 
ATOM     23  C   UNL     1      17.777  36.993  44.343  0.00  0.00    +0.000 A 
ATOM     24  C   UNL     1      17.494  39.052  45.565  0.00  0.00    +0.000 A 
ATOM     25  C   UNL     1      16.856  36.370  45.189  0.00  0.00    +0.000 A 
ATOM     26  C   UNL     1      16.573  38.428  46.410  0.00  0.00    +0.000 A 
ATOM     27  C   UNL     1      16.250  37.089  46.217  0.00  0.00    +0.000 A 
ENDBRANCH  21  22
BRANCH  21  28
ATOM     28  O   UNL     1      20.421  38.533  43.851  0.00  0.00    +0.000 OA
ATOM     29  H   UNL     1      20.721  38.817  44.729  0.00  0.00    +0.000 HD
ENDBRANCH  21  28
ENDBRANCH  18  21
ENDBRANCH   2  17
BRANCH   2  30
ATOM     30  C   UNL     1      16.814  43.177  43.971  0.00  0.00    +0.000 C 
ATOM     31  O   UNL     1      16.332  44.245  44.301  0.00  0.00    +0.000 OA
ATOM     32  OXT UNL     1      16.326  42.418  42.962  0.00  0.00    +0.000 OA
ENDBRANCH   2  30
TORSDOF 8
ENDMDL
MODEL 4
REMARK VINA RESULT:      -6.8      2.939      7.298
REMARK  Name = 323549
REMARK  8 active torsions:
REMARK  status: ('A' for Active; 'I' for Inactive)
REMARK    1  A    between atoms: C_3  and  O_5
REMARK    2  A    between atoms: O_5  and  C_8
REMARK    3  A    between atoms: C_14  and  C_15
REMARK    4  A    between atoms: CA_16  and  N_17
REMARK    5  A    between atoms: CA_16  and  C_18
REMARK    6  A    between atoms: C_19  and  C_23
REMARK    7  A    between atoms: C_23  and  O_24
REMARK    8  A    between atoms: C_23  and  C_25
REMARK                            x       y       z     vdW  Elec       q    Type
REMARK                         _______ _______ _______ _____ _____    ______ ____
ROOT
ATOM      1  C   UNL     1      19.273  42.506  44.414  0.00  0.00    +0.000 C 
ATOM      2  CA  UNL     1      18.006  42.050  44.444  0.00  0.00    +0.000 C 
ENDROOT
BRANCH   1   8
ATOM      3  C   UNL     1      22.218  41.131  47.123  0.00  0.00    +0.000 A 
ATOM      4  C   UNL     1      21.849  42.474  47.142  0.00  0.00    +0.000 A 
ATOM      5  C   UNL     1      21.831  40.317  46.054  0.00  0.00    +0.000 A 
ATOM      6  C   UNL     1      20.963  42.966  46.177  0.00  0.00    +0.000 A 
ATOM      7  C   UNL     1      20.931  40.802  45.102  0.00  0.00    +0.000 A 
ATOM      8  C   UNL     1      20.455  42.117  45.188  0.00  0.00    +0.000 A 
BRANCH   3   9
ATOM      9  O   UNL     1      22.951  40.658  48.191  0.00  0.00    +0.000 OA
BRANCH   9  12
ATOM     10  I   UNL     1      25.605  40.556  46.356  0.00  0.00    +0.000 I 
ATOM     11  C   UNL     1      25.168  41.573  48.133  0.00  0.00    +0.000 A 
ATOM     12  C   UNL     1      23.911  41.489  48.748  0.00  0.00    +0.000 A 
ATOM     13  C   UNL     1      26.180  42.363  48.695  0.00  0.00    +0.000 A 
ATOM     14  C   UNL     1      23.661  42.280  49.881  0.00  0.00    +0.000 A 
ATOM     15  C   UNL     1      25.936  43.089  49.862  0.00  0.00    +0.000 A 
ATOM     16  C   UNL     1      24.674  43.057  50.447  0.00  0.00    +0.000 A 
ENDBRANCH   9  12
ENDBRANCH   3   9
ENDBRANCH   1   8
BRANCH   2  17
ATOM     17  N   UNL     1      17.511  40.962  45.137  0.00  0.00    +0.000 N 
ATOM     18  C   UNL     1      17.372  40.918  46.518  0.00  0.00    +0.000 C 
ATOM     19  O   UNL     1      17.723  41.826  47.274  0.00  0.00    +0.000 OA
ATOM     20  H   UNL     1      17.240  40.169  44.620  0.00  0.00    +0.000 HD
BRANCH  18  21
ATOM     21  C   UNL     1      16.941  39.547  47.068  0.00  0.00    +0.000 C 
BRANCH  21  22
ATOM     22  C   UNL     1      17.151  38.385  46.118  0.00  0.00    +0.000 A 
ATOM     23  C   UNL     1      16.335  37.243  46.163  0.00  0.00    +0.000 A 
ATOM     24  C   UNL     1      18.132  38.461  45.114  0.00  0.00    +0.000 A 
ATOM     25  C   UNL     1      16.532  36.190  45.266  0.00  0.00    +0.000 A 
ATOM     26  C   UNL     1      18.328  37.408  44.218  0.00  0.00    +0.000 A 
ATOM     27  C   UNL     1      17.532  36.270  44.299  0.00  0.00    +0.000 A 
ENDBRANCH  21  22
BRANCH  21  28
ATOM     28  O   UNL     1      15.546  39.715  47.360  0.00  0.00    +0.000 OA
ATOM     29  H   UNL     1      15.393  40.607  47.709  0.00  0.00    +0.000 HD
ENDBRANCH  21  28
ENDBRANCH  18  21
ENDBRANCH   2  17
BRANCH   2  30
ATOM     30  C   UNL     1      17.025  42.866  43.650  0.00  0.00    +0.000 C 
ATOM     31  O   UNL     1      16.623  43.976  43.946  0.00  0.00    +0.000 OA
ATOM     32  OXT UNL     1      16.613  42.192  42.550  0.00  0.00    +0.000 OA
ENDBRANCH   2  30
TORSDOF 8
ENDMDL
MODEL 5
REMARK VINA RESULT:      -5.8      2.965      6.600
REMARK  Name = 323549
REMARK  8 active torsions:
REMARK  status: ('A' for Active; 'I' for Inactive)
REMARK    1  A    between atoms: C_3  and  O_5
REMARK    2  A    between atoms: O_5  and  C_8
REMARK    3  A    between atoms: C_14  and  C_15
REMARK    4  A    between atoms: CA_16  and  N_17
REMARK    5  A    between atoms: CA_16  and  C_18
REMARK    6  A    between atoms: C_19  and  C_23
REMARK    7  A    between atoms: C_23  and  O_24
REMARK    8  A    between atoms: C_23  and  C_25
REMARK                            x       y       z     vdW  Elec       q    Type
REMARK                         _______ _______ _______ _____ _____    ______ ____
ROOT
ATOM      1  C   UNL     1      18.695  43.444  45.384  0.00  0.00    +0.000 C 
ATOM      2  CA  UNL     1      17.938  42.582  44.679  0.00  0.00    +0.000 C 
ENDROOT
BRANCH   1   8
ATOM      3  C   UNL     1      22.003  42.137  47.674  0.00  0.00    +0.000 A 
ATOM      4  C   UNL     1      20.731  42.115  48.242  0.00  0.00    +0.000 A 
ATOM      5  C   UNL     1      22.223  42.832  46.481  0.00  0.00    +0.000 A 
ATOM      6  C   UNL     1      19.647  42.652  47.539  0.00  0.00    +0.000 A 
ATOM      7  C   UNL     1      21.138  43.350  45.770  0.00  0.00    +0.000 A 
ATOM      8  C   UNL     1      19.837  43.219  46.274  0.00  0.00    +0.000 A 
BRANCH   3   9
ATOM      9  O   UNL     1      23.002  41.444  48.326  0.00  0.00    +0.000 OA
BRANCH   9  12
ATOM     10  I   UNL     1      26.020  42.545  48.014  0.00  0.00    +0.000 I 
ATOM     11  C   UNL     1      25.082  40.811  47.311  0.00  0.00    +0.000 A 
ATOM     12  C   UNL     1      23.741  40.521  47.602  0.00  0.00    +0.000 A 
ATOM     13  C   UNL     1      25.846  39.926  46.538  0.00  0.00    +0.000 A 
ATOM     14  C   UNL     1      23.211  39.290  47.182  0.00  0.00    +0.000 A 
ATOM     15  C   UNL     1      25.283  38.738  46.069  0.00  0.00    +0.000 A 
ATOM     16  C   UNL     1      23.971  38.415  46.401  0.00  0.00    +0.000 A 
ENDBRANCH   9  12
ENDBRANCH   3   9
ENDBRANCH   1   8
BRANCH   2  17
ATOM     17  N   UNL     1      18.140  41.228  44.496  0.00  0.00    +0.000 N 
ATOM     18  C   UNL     1      19.225  40.688  43.818  0.00  0.00    +0.000 C 
ATOM     19  O   UNL     1      20.095  41.363  43.265  0.00  0.00    +0.000 OA
ATOM     20  H   UNL     1      17.473  40.606  44.870  0.00  0.00    +0.000 HD
BRANCH  18  21
ATOM     21  C   UNL     1      19.152  39.164  43.615  0.00  0.00    +0.000 C 
BRANCH  21  22
ATOM     22  C   UNL     1      18.194  38.444  44.543  0.00  0.00    +0.000 A 
ATOM     23  C   UNL     1      17.566  39.108  45.609  0.00  0.00    +0.000 A 
ATOM     24  C   UNL     1      17.857  37.100  44.307  0.00  0.00    +0.000 A 
ATOM     25  C   UNL     1      16.672  38.431  46.443  0.00  0.00    +0.000 A 
ATOM     26  C   UNL     1      16.962  36.425  45.140  0.00  0.00    +0.000 A 
ATOM     27  C   UNL     1      16.376  37.090  46.213  0.00  0.00    +0.000 A 
ENDBRANCH  21  22
BRANCH  21  28
ATOM     28  O   UNL     1      20.499  38.721  43.838  0.00  0.00    +0.000 OA
ATOM     29  H   UNL     1      20.628  37.855  43.421  0.00  0.00    +0.000 HD
ENDBRANCH  21  28
ENDBRANCH  18  21
ENDBRANCH   2  17
BRANCH   2  30
ATOM     30  C   UNL     1      16.708  43.185  44.060  0.00  0.00    +0.000 C 
ATOM     31  O   UNL     1      16.223  44.263  44.353  0.00  0.00    +0.000 OA
ATOM     32  OXT UNL     1      16.177  42.357  43.130  0.00  0.00    +0.000 OA
ENDBRANCH   2  30
TORSDOF 8
ENDMDL
MODEL 6
REMARK VINA RESULT:      -5.5      1.540      2.000
REMARK  Name = 323549
REMARK  8 active torsions:
REMARK  status: ('A' for Active; 'I' for Inactive)
REMARK    1  A    between atoms: C_3  and  O_5
REMARK    2  A    between atoms: O_5  and  C_8
REMARK    3  A    between atoms: C_14  and  C_15
REMARK    4  A    between atoms: CA_16  and  N_17
REMARK    5  A    between atoms: CA_16  and  C_18
REMARK    6  A    between atoms: C_19  and  C_23
REMARK    7  A    between atoms: C_23  and  O_24
REMARK    8  A    between atoms: C_23  and  C_25
REMARK                            x       y       z     vdW  Elec       q    Type
REMARK                         _______ _______ _______ _____ _____    ______ ____
ROOT
ATOM      1  C   UNL     1      22.421  42.505  49.123  0.00  0.00    +0.000 C 
ATOM      2  CA  UNL     1      23.719  42.170  48.993  0.00  0.00    +0.000 C 
ENDROOT
BRANCH   1   8
ATOM      3  C   UNL     1      18.865  41.369  47.134  0.00  0.00    +0.000 A 
ATOM      4  C   UNL     1      20.053  40.705  46.836  0.00  0.00    +0.000 A 
ATOM      5  C   UNL     1      18.896  42.562  47.862  0.00  0.00    +0.000 A 
ATOM      6  C   UNL     1      21.255  41.146  47.400  0.00  0.00    +0.000 A 
ATOM      7  C   UNL     1      20.092  42.991  48.441  0.00  0.00    +0.000 A 
ATOM      8  C   UNL     1      21.271  42.256  48.252  0.00  0.00    +0.000 A 
BRANCH   3   9
ATOM      9  O   UNL     1      17.689  40.794  46.697  0.00  0.00    +0.000 OA
BRANCH   9  12
ATOM     10  I   UNL     1      16.900  37.885  45.542  0.00  0.00    +0.000 I 
ATOM     11  C   UNL     1      17.012  39.769  44.636  0.00  0.00    +0.000 A 
ATOM     12  C   UNL     1      17.355  40.921  45.357  0.00  0.00    +0.000 A 
ATOM     13  C   UNL     1      16.718  39.851  43.268  0.00  0.00    +0.000 A 
ATOM     14  C   UNL     1      17.309  42.164  44.704  0.00  0.00    +0.000 A 
ATOM     15  C   UNL     1      16.744  41.086  42.618  0.00  0.00    +0.000 A 
ATOM     16  C   UNL     1      17.028  42.242  43.338  0.00  0.00    +0.000 A 
ENDBRANCH   9  12
ENDBRANCH   3   9
ENDBRANCH   1   8
BRANCH   2  17
ATOM     17  N   UNL     1      24.294  41.354  48.038  0.00  0.00    +0.000 N 
ATOM     18  C   UNL     1      25.201  41.795  47.083  0.00  0.00    +0.000 C 
ATOM     19  O   UNL     1      25.548  42.970  46.955  0.00  0.00    +0.000 OA
ATOM     20  H   UNL     1      24.046  40.401  48.035  0.00  0.00    +0.000 HD
BRANCH  18  21
ATOM     21  C   UNL     1      25.585  40.733  46.036  0.00  0.00    +0.000 C 
BRANCH  21  22
ATOM     22  C   UNL     1      24.413  40.088  45.324  0.00  0.00    +0.000 A 
ATOM     23  C   UNL     1      24.066  38.746  45.547  0.00  0.00    +0.000 A 
ATOM     24  C   UNL     1      23.596  40.851  44.472  0.00  0.00    +0.000 A 
ATOM     25  C   UNL     1      22.971  38.174  44.895  0.00  0.00    +0.000 A 
ATOM     26  C   UNL     1      22.501  40.279  43.820  0.00  0.00    +0.000 A 
ATOM     27  C   UNL     1      22.194  38.938  44.027  0.00  0.00    +0.000 A 
ENDBRANCH  21  22
BRANCH  21  28
ATOM     28  O   UNL     1      26.317  39.755  46.790  0.00  0.00    +0.000 OA
ATOM     29  H   UNL     1      25.728  39.335  47.435  0.00  0.00    +0.000 HD
ENDBRANCH  21  28
ENDBRANCH  18  21
ENDBRANCH   2  17
BRANCH   2  30
ATOM     30  C   UNL     1      24.638  42.808  49.998  0.00  0.00    +0.000 C 
ATOM     31  O   UNL     1      24.311  43.628  50.836  0.00  0.00    +0.000 OA
ATOM     32  OXT UNL     1      25.908  42.369  49.840  0.00  0.00    +0.000 OA
ENDBRANCH   2  30
TORSDOF 8
ENDMDL
MODEL 7
REMARK VINA RESULT:      -5.5      2.105      2.968
REMARK  Name = 323549
REMARK  8 active torsions:
REMARK  status: ('A' for Active; 'I' for Inactive)
REMARK    1  A    between atoms: C_3  and  O_5
REMARK    2  A    between atoms: O_5  and  C_8
REMARK    3  A    between atoms: C_14  and  C_15
REMARK    4  A    between atoms: CA_16  and  N_17
REMARK    5  A    between atoms: CA_16  and  C_18
REMARK    6  A    between atoms: C_19  and  C_23
REMARK    7  A    between atoms: C_23  and  O_24
REMARK    8  A    between atoms: C_23  and  C_25
REMARK                            x       y       z     vdW  Elec       q    Type
REMARK                         _______ _______ _______ _____ _____    ______ ____
ROOT
ATOM      1  C   UNL     1      21.960  42.668  49.047  0.00  0.00    +0.000 C 
ATOM      2  CA  UNL     1      23.241  42.269  49.159  0.00  0.00    +0.000 C 
ENDROOT
BRANCH   1   8
ATOM      3  C   UNL     1      18.968  41.986  46.135  0.00  0.00    +0.000 A 
ATOM      4  C   UNL     1      20.232  41.431  45.954  0.00  0.00    +0.000 A 
ATOM      5  C   UNL     1      18.771  42.971  47.107  0.00  0.00    +0.000 A 
ATOM      6  C   UNL     1      21.262  41.743  46.848  0.00  0.00    +0.000 A 
ATOM      7  C   UNL     1      19.793  43.267  48.012  0.00  0.00    +0.000 A 
ATOM      8  C   UNL     1      21.031  42.617  47.916  0.00  0.00    +0.000 A 
BRANCH   3   9
ATOM      9  O   UNL     1      17.947  41.515  45.336  0.00  0.00    +0.000 OA
BRANCH   9  12
ATOM     10  I   UNL     1      19.184  39.203  43.453  0.00  0.00    +0.000 I 
ATOM     11  C   UNL     1      17.719  39.158  44.949  0.00  0.00    +0.000 A 
ATOM     12  C   UNL     1      17.358  40.306  45.669  0.00  0.00    +0.000 A 
ATOM     13  C   UNL     1      17.108  37.928  45.223  0.00  0.00    +0.000 A 
ATOM     14  C   UNL     1      16.442  40.176  46.726  0.00  0.00    +0.000 A 
ATOM     15  C   UNL     1      16.147  37.830  46.231  0.00  0.00    +0.000 A 
ATOM     16  C   UNL     1      15.824  38.951  46.990  0.00  0.00    +0.000 A 
ENDBRANCH   9  12
ENDBRANCH   3   9
ENDBRANCH   1   8
BRANCH   2  17
ATOM     17  N   UNL     1      23.991  41.554  48.245  0.00  0.00    +0.000 N 
ATOM     18  C   UNL     1      25.189  42.001  47.704  0.00  0.00    +0.000 C 
ATOM     19  O   UNL     1      25.683  43.104  47.944  0.00  0.00    +0.000 OA
ATOM     20  H   UNL     1      23.655  40.673  47.959  0.00  0.00    +0.000 HD
BRANCH  18  21
ATOM     21  C   UNL     1      25.760  41.097  46.596  0.00  0.00    +0.000 C 
BRANCH  21  22
ATOM     22  C   UNL     1      24.727  40.286  45.840  0.00  0.00    +0.000 A 
ATOM     23  C   UNL     1      24.011  40.831  44.762  0.00  0.00    +0.000 A 
ATOM     24  C   UNL     1      24.515  38.935  46.162  0.00  0.00    +0.000 A 
ATOM     25  C   UNL     1      23.075  40.062  44.066  0.00  0.00    +0.000 A 
ATOM     26  C   UNL     1      23.580  38.166  45.466  0.00  0.00    +0.000 A 
ATOM     27  C   UNL     1      22.855  38.733  44.422  0.00  0.00    +0.000 A 
ENDBRANCH  21  22
BRANCH  21  28
ATOM     28  O   UNL     1      26.671  40.232  47.291  0.00  0.00    +0.000 OA
ATOM     29  H   UNL     1      27.239  40.761  47.873  0.00  0.00    +0.000 HD
ENDBRANCH  21  28
ENDBRANCH  18  21
ENDBRANCH   2  17
BRANCH   2  30
ATOM     30  C   UNL     1      23.927  42.702  50.425  0.00  0.00    +0.000 C 
ATOM     31  O   UNL     1      24.083  42.014  51.417  0.00  0.00    +0.000 OA
ATOM     32  OXT UNL     1      24.342  43.987  50.335  0.00  0.00    +0.000 OA
ENDBRANCH   2  30
TORSDOF 8
ENDMDL
MODEL 8
REMARK VINA RESULT:      -5.1      2.908      7.448
REMARK  Name = 323549
REMARK  8 active torsions:
REMARK  status: ('A' for Active; 'I' for Inactive)
REMARK    1  A    between atoms: C_3  and  O_5
REMARK    2  A    between atoms: O_5  and  C_8
REMARK    3  A    between atoms: C_14  and  C_15
REMARK    4  A    between atoms: CA_16  and  N_17
REMARK    5  A    between atoms: CA_16  and  C_18
REMARK    6  A    between atoms: C_19  and  C_23
REMARK    7  A    between atoms: C_23  and  O_24
REMARK    8  A    between atoms: C_23  and  C_25
REMARK                            x       y       z     vdW  Elec       q    Type
REMARK                         _______ _______ _______ _____ _____    ______ ____
ROOT
ATOM      1  C   UNL     1      19.649  40.705  42.904  0.00  0.00    +0.000 C 
ATOM      2  CA  UNL     1      18.392  40.901  43.348  0.00  0.00    +0.000 C 
ENDROOT
BRANCH   1   8
ATOM      3  C   UNL     1      23.003  40.535  45.476  0.00  0.00    +0.000 A 
ATOM      4  C   UNL     1      22.305  41.734  45.346  0.00  0.00    +0.000 A 
ATOM      5  C   UNL     1      22.774  39.493  44.573  0.00  0.00    +0.000 A 
ATOM      6  C   UNL     1      21.267  41.836  44.414  0.00  0.00    +0.000 A 
ATOM      7  C   UNL     1      21.725  39.587  43.656  0.00  0.00    +0.000 A 
ATOM      8  C   UNL     1      20.934  40.743  43.605  0.00  0.00    +0.000 A 
BRANCH   3   9
ATOM      9  O   UNL     1      23.895  40.430  46.523  0.00  0.00    +0.000 OA
BRANCH   9  12
ATOM     10  I   UNL     1      26.781  41.370  47.623  0.00  0.00    +0.000 I 
ATOM     11  C   UNL     1      24.835  41.744  48.297  0.00  0.00    +0.000 A 
ATOM     12  C   UNL     1      23.708  41.245  47.629  0.00  0.00    +0.000 A 
ATOM     13  C   UNL     1      24.686  42.529  49.449  0.00  0.00    +0.000 A 
ATOM     14  C   UNL     1      22.433  41.624  48.083  0.00  0.00    +0.000 A 
ATOM     15  C   UNL     1      23.412  42.838  49.927  0.00  0.00    +0.000 A 
ATOM     16  C   UNL     1      22.287  42.396  49.237  0.00  0.00    +0.000 A 
ENDBRANCH   9  12
ENDBRANCH   3   9
ENDBRANCH   1   8
BRANCH   2  17
ATOM     17  N   UNL     1      17.966  41.055  44.653  0.00  0.00    +0.000 N 
ATOM     18  C   UNL     1      17.490  40.017  45.443  0.00  0.00    +0.000 C 
ATOM     19  O   UNL     1      17.350  38.859  45.046  0.00  0.00    +0.000 OA
ATOM     20  H   UNL     1      18.003  41.956  45.048  0.00  0.00    +0.000 HD
BRANCH  18  21
ATOM     21  C   UNL     1      16.936  40.462  46.808  0.00  0.00    +0.000 C 
BRANCH  21  22
ATOM     22  C   UNL     1      17.376  41.841  47.255  0.00  0.00    +0.000 A 
ATOM     23  C   UNL     1      18.591  42.043  47.929  0.00  0.00    +0.000 A 
ATOM     24  C   UNL     1      16.600  42.969  46.935  0.00  0.00    +0.000 A 
ATOM     25  C   UNL     1      18.989  43.324  48.316  0.00  0.00    +0.000 A 
ATOM     26  C   UNL     1      16.998  44.251  47.323  0.00  0.00    +0.000 A 
ATOM     27  C   UNL     1      18.190  44.426  48.020  0.00  0.00    +0.000 A 
ENDBRANCH  21  22
BRANCH  21  28
ATOM     28  O   UNL     1      17.415  39.461  47.719  0.00  0.00    +0.000 OA
ATOM     29  H   UNL     1      17.097  38.588  47.437  0.00  0.00    +0.000 HD
ENDBRANCH  21  28
ENDBRANCH  18  21
ENDBRANCH   2  17
BRANCH   2  30
ATOM     30  C   UNL     1      17.351  41.001  42.268  0.00  0.00    +0.000 C 
ATOM     31  O   UNL     1      17.408  41.730  41.295  0.00  0.00    +0.000 OA
ATOM     32  OXT UNL     1      16.306  40.179  42.524  0.00  0.00    +0.000 OA
ENDBRANCH   2  30
TORSDOF 8
ENDMDL
MODEL 9
REMARK VINA RESULT:      -4.7      3.108      7.373
REMARK  Name = 323549
REMARK  8 active torsions:
REMARK  status: ('A' for Active; 'I' for Inactive)
REMARK    1  A    between atoms: C_3  and  O_5
REMARK    2  A    between atoms: O_5  and  C_8
REMARK    3  A    between atoms: C_14  and  C_15
REMARK    4  A    between atoms: CA_16  and  N_17
REMARK    5  A    between atoms: CA_16  and  C_18
REMARK    6  A    between atoms: C_19  and  C_23
REMARK    7  A    between atoms: C_23  and  O_24
REMARK    8  A    between atoms: C_23  and  C_25
REMARK                            x       y       z     vdW  Elec       q    Type
REMARK                         _______ _______ _______ _____ _____    ______ ____
ROOT
ATOM      1  C   UNL     1      20.423  42.646  43.892  0.00  0.00    +0.000 C 
ATOM      2  CA  UNL     1      19.360  42.501  43.077  0.00  0.00    +0.000 C 
ENDROOT
BRANCH   1   8
ATOM      3  C   UNL     1      22.140  40.947  47.364  0.00  0.00    +0.000 A 
ATOM      4  C   UNL     1      22.270  40.283  46.146  0.00  0.00    +0.000 A 
ATOM      5  C   UNL     1      21.231  42.001  47.491  0.00  0.00    +0.000 A 
ATOM      6  C   UNL     1      21.610  40.773  45.014  0.00  0.00    +0.000 A 
ATOM      7  C   UNL     1      20.588  42.503  46.357  0.00  0.00    +0.000 A 
ATOM      8  C   UNL     1      20.813  41.920  45.103  0.00  0.00    +0.000 A 
BRANCH   3   9
ATOM      9  O   UNL     1      22.944  40.528  48.404  0.00  0.00    +0.000 OA
BRANCH   9  12
ATOM     10  I   UNL     1      25.528  40.439  46.470  0.00  0.00    +0.000 I 
ATOM     11  C   UNL     1      25.127  41.509  48.225  0.00  0.00    +0.000 A 
ATOM     12  C   UNL     1      23.898  41.409  48.892  0.00  0.00    +0.000 A 
ATOM     13  C   UNL     1      26.134  42.350  48.718  0.00  0.00    +0.000 A 
ATOM     14  C   UNL     1      23.666  42.234  50.005  0.00  0.00    +0.000 A 
ATOM     15  C   UNL     1      25.912  43.112  49.866  0.00  0.00    +0.000 A 
ATOM     16  C   UNL     1      24.675  43.063  50.501  0.00  0.00    +0.000 A 
ENDBRANCH   9  12
ENDBRANCH   3   9
ENDBRANCH   1   8
BRANCH   2  17
ATOM     17  N   UNL     1      18.406  41.503  43.094  0.00  0.00    +0.000 N 
ATOM     18  C   UNL     1      17.124  41.662  43.604  0.00  0.00    +0.000 C 
ATOM     19  O   UNL     1      16.720  42.695  44.140  0.00  0.00    +0.000 OA
ATOM     20  H   UNL     1      18.649  40.624  42.723  0.00  0.00    +0.000 HD
BRANCH  18  21
ATOM     21  C   UNL     1      16.295  40.365  43.650  0.00  0.00    +0.000 C 
BRANCH  21  22
ATOM     22  C   UNL     1      16.419  39.576  44.937  0.00  0.00    +0.000 A 
ATOM     23  C   UNL     1      16.610  38.185  44.930  0.00  0.00    +0.000 A 
ATOM     24  C   UNL     1      16.417  40.239  46.177  0.00  0.00    +0.000 A 
ATOM     25  C   UNL     1      16.740  37.477  46.127  0.00  0.00    +0.000 A 
ATOM     26  C   UNL     1      16.548  39.530  47.373  0.00  0.00    +0.000 A 
ATOM     27  C   UNL     1      16.703  38.148  47.347  0.00  0.00    +0.000 A 
ENDBRANCH  21  22
BRANCH  21  28
ATOM     28  O   UNL     1      16.788  39.601  42.540  0.00  0.00    +0.000 OA
ATOM     29  H   UNL     1      17.138  38.754  42.859  0.00  0.00    +0.000 HD
ENDBRANCH  21  28
ENDBRANCH  18  21
ENDBRANCH   2  17
BRANCH   2  30
ATOM     30  C   UNL     1      19.194  43.596  42.059  0.00  0.00    +0.000 C 
ATOM     31  O   UNL     1      18.268  43.700  41.276  0.00  0.00    +0.000 OA
ATOM     32  OXT UNL     1      20.234  44.461  42.104  0.00  0.00    +0.000 OA
ENDBRANCH   2  30
TORSDOF 8
ENDMDL
