MODEL 1
REMARK VINA RESULT:      -8.4      0.000      0.000
REMARK  Name = 320380
REMARK  6 active torsions:
REMARK  status: ('A' for Active; 'I' for Inactive)
REMARK    1  A    between atoms: C_3  and  O_5
REMARK    2  A    between atoms: O_5  and  C_8
REMARK    3  A    between atoms: C_14  and  C_15
REMARK    4  A    between atoms: CA_16  and  N_17
REMARK    5  A    between atoms: CA_16  and  C_18
REMARK    6  A    between atoms: C_19  and  C_23
REMARK                            x       y       z     vdW  Elec       q    Type
REMARK                         _______ _______ _______ _____ _____    ______ ____
ROOT
ATOM      1  C   UNL     1      20.212  42.494  43.438  0.00  0.00    +0.000 C 
ATOM      2  CA  UNL     1      19.041  41.932  43.094  0.00  0.00    +0.000 C 
ENDROOT
BRANCH   1   8
ATOM      3  C   UNL     1      22.426  41.230  46.824  0.00  0.00    +0.000 A 
ATOM      4  C   UNL     1      22.007  42.557  46.741  0.00  0.00    +0.000 A 
ATOM      5  C   UNL     1      22.347  40.400  45.702  0.00  0.00    +0.000 A 
ATOM      6  C   UNL     1      21.359  43.005  45.587  0.00  0.00    +0.000 A 
ATOM      7  C   UNL     1      21.686  40.845  44.554  0.00  0.00    +0.000 A 
ATOM      8  C   UNL     1      21.144  42.139  44.512  0.00  0.00    +0.000 A 
BRANCH   3   9
ATOM      9  O   UNL     1      22.874  40.778  48.047  0.00  0.00    +0.000 OA
BRANCH   9  12
ATOM     10 BR   UNL     1      25.640  40.583  46.695  0.00  0.00    +0.000 Br
ATOM     11  C   UNL     1      25.134  41.543  48.251  0.00  0.00    +0.000 A 
ATOM     12  C   UNL     1      23.812  41.553  48.711  0.00  0.00    +0.000 A 
ATOM     13  C   UNL     1      26.126  42.252  48.940  0.00  0.00    +0.000 A 
ATOM     14  C   UNL     1      23.484  42.360  49.812  0.00  0.00    +0.000 A 
ATOM     15  C   UNL     1      25.799  42.987  50.080  0.00  0.00    +0.000 A 
ATOM     16  C   UNL     1      24.477  43.053  50.508  0.00  0.00    +0.000 A 
ENDBRANCH   9  12
ENDBRANCH   3   9
ENDBRANCH   1   8
BRANCH   2  17
ATOM     17  N   UNL     1      18.498  40.757  43.578  0.00  0.00    +0.000 N 
ATOM     18  C   UNL     1      17.879  40.626  44.810  0.00  0.00    +0.000 C 
ATOM     19  O   UNL     1      17.726  41.538  45.612  0.00  0.00    +0.000 OA
ATOM     20  H   UNL     1      18.555  39.957  43.007  0.00  0.00    +0.000 HD
BRANCH  18  21
ATOM     21  C   UNL     1      17.514  39.248  45.236  0.00  0.00    +0.000 A 
ATOM     22  C   UNL     1      16.597  38.993  46.257  0.00  0.00    +0.000 A 
ATOM     23  C   UNL     1      18.047  38.168  44.519  0.00  0.00    +0.000 A 
ATOM     24  F   UNL     1      16.048  40.000  46.954  0.00  0.00    +0.000 F 
ATOM     25  C   UNL     1      16.194  37.692  46.552  0.00  0.00    +0.000 A 
ATOM     26  C   UNL     1      17.646  36.863  44.811  0.00  0.00    +0.000 A 
ATOM     27  C   UNL     1      16.715  36.624  45.821  0.00  0.00    +0.000 A 
ENDBRANCH  18  21
ENDBRANCH   2  17
BRANCH   2  28
ATOM     28  C   UNL     1      18.227  42.693  42.086  0.00  0.00    +0.000 C 
ATOM     29  O   UNL     1      18.434  43.839  41.727  0.00  0.00    +0.000 OA
ATOM     30  OXT UNL     1      17.208  41.937  41.612  0.00  0.00    +0.000 OA
ENDBRANCH   2  28
TORSDOF 6
ENDMDL
MODEL 2
REMARK VINA RESULT:      -7.8      1.394      1.537
REMARK  Name = 320380
REMARK  6 active torsions:
REMARK  status: ('A' for Active; 'I' for Inactive)
REMARK    1  A    between atoms: C_3  and  O_5
REMARK    2  A    between atoms: O_5  and  C_8
REMARK    3  A    between atoms: C_14  and  C_15
REMARK    4  A    between atoms: CA_16  and  N_17
REMARK    5  A    between atoms: CA_16  and  C_18
REMARK    6  A    between atoms: C_19  and  C_23
REMARK                            x       y       z     vdW  Elec       q    Type
REMARK                         _______ _______ _______ _____ _____    ______ ____
ROOT
ATOM      1  C   UNL     1      18.912  43.253  45.137  0.00  0.00    +0.000 C 
ATOM      2  CA  UNL     1      17.829  42.517  44.833  0.00  0.00    +0.000 C 
ENDROOT
BRANCH   1   8
ATOM      3  C   UNL     1      22.073  41.791  47.553  0.00  0.00    +0.000 A 
ATOM      4  C   UNL     1      20.835  42.052  48.137  0.00  0.00    +0.000 A 
ATOM      5  C   UNL     1      22.346  42.246  46.259  0.00  0.00    +0.000 A 
ATOM      6  C   UNL     1      19.815  42.622  47.369  0.00  0.00    +0.000 A 
ATOM      7  C   UNL     1      21.323  42.802  45.489  0.00  0.00    +0.000 A 
ATOM      8  C   UNL     1      20.035  42.947  46.028  0.00  0.00    +0.000 A 
BRANCH   3   9
ATOM      9  O   UNL     1      22.977  41.047  48.282  0.00  0.00    +0.000 OA
BRANCH   9  12
ATOM     10 BR   UNL     1      25.583  40.691  46.669  0.00  0.00    +0.000 Br
ATOM     11  C   UNL     1      25.299  41.631  48.293  0.00  0.00    +0.000 A 
ATOM     12  C   UNL     1      24.030  41.725  48.875  0.00  0.00    +0.000 A 
ATOM     13  C   UNL     1      26.403  42.237  48.905  0.00  0.00    +0.000 A 
ATOM     14  C   UNL     1      23.869  42.514  50.025  0.00  0.00    +0.000 A 
ATOM     15  C   UNL     1      26.242  42.953  50.092  0.00  0.00    +0.000 A 
ATOM     16  C   UNL     1      24.973  43.103  50.645  0.00  0.00    +0.000 A 
ENDBRANCH   9  12
ENDBRANCH   3   9
ENDBRANCH   1   8
BRANCH   2  17
ATOM     17  N   UNL     1      17.588  41.198  45.168  0.00  0.00    +0.000 N 
ATOM     18  C   UNL     1      18.299  40.119  44.671  0.00  0.00    +0.000 C 
ATOM     19  O   UNL     1      19.237  40.204  43.887  0.00  0.00    +0.000 OA
ATOM     20  H   UNL     1      16.860  41.012  45.804  0.00  0.00    +0.000 HD
BRANCH  18  21
ATOM     21  C   UNL     1      17.785  38.763  45.005  0.00  0.00    +0.000 A 
ATOM     22  C   UNL     1      16.889  38.532  46.050  0.00  0.00    +0.000 A 
ATOM     23  C   UNL     1      18.148  37.693  44.175  0.00  0.00    +0.000 A 
ATOM     24  F   UNL     1      16.500  39.534  46.855  0.00  0.00    +0.000 F 
ATOM     25  C   UNL     1      16.341  37.268  46.261  0.00  0.00    +0.000 A 
ATOM     26  C   UNL     1      17.601  36.425  44.382  0.00  0.00    +0.000 A 
ATOM     27  C   UNL     1      16.693  36.213  45.419  0.00  0.00    +0.000 A 
ENDBRANCH  18  21
ENDBRANCH   2  17
BRANCH   2  28
ATOM     28  C   UNL     1      16.755  43.230  44.063  0.00  0.00    +0.000 C 
ATOM     29  O   UNL     1      16.302  44.330  44.330  0.00  0.00    +0.000 OA
ATOM     30  OXT UNL     1      16.335  42.489  43.011  0.00  0.00    +0.000 OA
ENDBRANCH   2  28
TORSDOF 6
ENDMDL
MODEL 3
REMARK VINA RESULT:      -7.4      3.733      7.942
REMARK  Name = 320380
REMARK  6 active torsions:
REMARK  status: ('A' for Active; 'I' for Inactive)
REMARK    1  A    between atoms: C_3  and  O_5
REMARK    2  A    between atoms: O_5  and  C_8
REMARK    3  A    between atoms: C_14  and  C_15
REMARK    4  A    between atoms: CA_16  and  N_17
REMARK    5  A    between atoms: CA_16  and  C_18
REMARK    6  A    between atoms: C_19  and  C_23
REMARK                            x       y       z     vdW  Elec       q    Type
REMARK                         _______ _______ _______ _____ _____    ______ ____
ROOT
ATOM      1  C   UNL     1      23.162  38.964  44.637  0.00  0.00    +0.000 C 
ATOM      2  CA  UNL     1      23.811  38.849  45.808  0.00  0.00    +0.000 C 
ENDROOT
BRANCH   1   8
ATOM      3  C   UNL     1      20.059  41.741  43.847  0.00  0.00    +0.000 A 
ATOM      4  C   UNL     1      20.052  40.509  43.196  0.00  0.00    +0.000 A 
ATOM      5  C   UNL     1      21.198  42.158  44.544  0.00  0.00    +0.000 A 
ATOM      6  C   UNL     1      21.119  39.625  43.378  0.00  0.00    +0.000 A 
ATOM      7  C   UNL     1      22.257  41.268  44.737  0.00  0.00    +0.000 A 
ATOM      8  C   UNL     1      22.199  39.975  44.193  0.00  0.00    +0.000 A 
BRANCH   3   9
ATOM      9  O   UNL     1      18.903  42.492  43.804  0.00  0.00    +0.000 OA
BRANCH   9  12
ATOM     10 BR   UNL     1      16.777  40.272  44.074  0.00  0.00    +0.000 Br
ATOM     11  C   UNL     1      17.148  41.723  45.240  0.00  0.00    +0.000 A 
ATOM     12  C   UNL     1      18.185  42.626  44.982  0.00  0.00    +0.000 A 
ATOM     13  C   UNL     1      16.350  41.872  46.381  0.00  0.00    +0.000 A 
ATOM     14  C   UNL     1      18.470  43.620  45.931  0.00  0.00    +0.000 A 
ATOM     15  C   UNL     1      16.595  42.913  47.277  0.00  0.00    +0.000 A 
ATOM     16  C   UNL     1      17.663  43.779  47.060  0.00  0.00    +0.000 A 
ENDBRANCH   9  12
ENDBRANCH   3   9
ENDBRANCH   1   8
BRANCH   2  17
ATOM     17  N   UNL     1      23.851  39.767  46.841  0.00  0.00    +0.000 N 
ATOM     18  C   UNL     1      24.821  40.744  46.986  0.00  0.00    +0.000 C 
ATOM     19  O   UNL     1      25.751  40.923  46.209  0.00  0.00    +0.000 OA
ATOM     20  H   UNL     1      23.141  39.723  47.521  0.00  0.00    +0.000 HD
BRANCH  18  21
ATOM     21  C   UNL     1      24.804  41.526  48.251  0.00  0.00    +0.000 A 
ATOM     22  C   UNL     1      25.966  42.020  48.848  0.00  0.00    +0.000 A 
ATOM     23  C   UNL     1      23.562  41.854  48.812  0.00  0.00    +0.000 A 
ATOM     24  F   UNL     1      27.174  41.746  48.330  0.00  0.00    +0.000 F 
ATOM     25  C   UNL     1      25.903  42.844  49.970  0.00  0.00    +0.000 A 
ATOM     26  C   UNL     1      23.494  42.681  49.936  0.00  0.00    +0.000 A 
ATOM     27  C   UNL     1      24.662  43.182  50.511  0.00  0.00    +0.000 A 
ENDBRANCH  18  21
ENDBRANCH   2  17
BRANCH   2  28
ATOM     28  C   UNL     1      24.552  37.559  46.016  0.00  0.00    +0.000 C 
ATOM     29  O   UNL     1      25.585  37.236  45.455  0.00  0.00    +0.000 OA
ATOM     30  OXT UNL     1      23.922  36.775  46.922  0.00  0.00    +0.000 OA
ENDBRANCH   2  28
TORSDOF 6
ENDMDL
MODEL 4
REMARK VINA RESULT:      -6.8      3.029      8.025
REMARK  Name = 320380
REMARK  6 active torsions:
REMARK  status: ('A' for Active; 'I' for Inactive)
REMARK    1  A    between atoms: C_3  and  O_5
REMARK    2  A    between atoms: O_5  and  C_8
REMARK    3  A    between atoms: C_14  and  C_15
REMARK    4  A    between atoms: CA_16  and  N_17
REMARK    5  A    between atoms: CA_16  and  C_18
REMARK    6  A    between atoms: C_19  and  C_23
REMARK                            x       y       z     vdW  Elec       q    Type
REMARK                         _______ _______ _______ _____ _____    ______ ____
ROOT
ATOM      1  C   UNL     1      23.068  39.200  44.564  0.00  0.00    +0.000 C 
ATOM      2  CA  UNL     1      23.875  39.264  45.636  0.00  0.00    +0.000 C 
ENDROOT
BRANCH   1   8
ATOM      3  C   UNL     1      19.222  40.939  44.177  0.00  0.00    +0.000 A 
ATOM      4  C   UNL     1      19.612  39.946  43.282  0.00  0.00    +0.000 A 
ATOM      5  C   UNL     1      20.167  41.534  45.019  0.00  0.00    +0.000 A 
ATOM      6  C   UNL     1      20.911  39.433  43.343  0.00  0.00    +0.000 A 
ATOM      7  C   UNL     1      21.461  41.011  45.089  0.00  0.00    +0.000 A 
ATOM      8  C   UNL     1      21.823  39.921  44.282  0.00  0.00    +0.000 A 
BRANCH   3   9
ATOM      9  O   UNL     1      17.884  41.271  44.219  0.00  0.00    +0.000 OA
BRANCH   9  12
ATOM     10 BR   UNL     1      17.005  43.019  46.605  0.00  0.00    +0.000 Br
ATOM     11  C   UNL     1      16.625  41.193  46.254  0.00  0.00    +0.000 A 
ATOM     12  C   UNL     1      17.077  40.558  45.092  0.00  0.00    +0.000 A 
ATOM     13  C   UNL     1      15.872  40.484  47.198  0.00  0.00    +0.000 A 
ATOM     14  C   UNL     1      16.682  39.234  44.846  0.00  0.00    +0.000 A 
ATOM     15  C   UNL     1      15.553  39.143  46.978  0.00  0.00    +0.000 A 
ATOM     16  C   UNL     1      15.945  38.522  45.795  0.00  0.00    +0.000 A 
ENDBRANCH   9  12
ENDBRANCH   3   9
ENDBRANCH   1   8
BRANCH   2  17
ATOM     17  N   UNL     1      23.813  40.164  46.684  0.00  0.00    +0.000 N 
ATOM     18  C   UNL     1      24.745  41.159  46.920  0.00  0.00    +0.000 C 
ATOM     19  O   UNL     1      25.729  41.372  46.222  0.00  0.00    +0.000 OA
ATOM     20  H   UNL     1      23.053  40.092  47.305  0.00  0.00    +0.000 HD
BRANCH  18  21
ATOM     21  C   UNL     1      24.612  41.918  48.192  0.00  0.00    +0.000 A 
ATOM     22  C   UNL     1      23.378  42.170  48.795  0.00  0.00    +0.000 A 
ATOM     23  C   UNL     1      25.782  42.314  48.856  0.00  0.00    +0.000 A 
ATOM     24  F   UNL     1      22.234  41.788  48.203  0.00  0.00    +0.000 F 
ATOM     25  C   UNL     1      23.299  42.784  50.043  0.00  0.00    +0.000 A 
ATOM     26  C   UNL     1      25.708  42.929  50.107  0.00  0.00    +0.000 A 
ATOM     27  C   UNL     1      24.469  43.157  50.705  0.00  0.00    +0.000 A 
ENDBRANCH  18  21
ENDBRANCH   2  17
BRANCH   2  28
ATOM     28  C   UNL     1      24.948  38.214  45.704  0.00  0.00    +0.000 C 
ATOM     29  O   UNL     1      26.114  38.370  45.384  0.00  0.00    +0.000 OA
ATOM     30  OXT UNL     1      24.456  37.044  46.174  0.00  0.00    +0.000 OA
ENDBRANCH   2  28
TORSDOF 6
ENDMDL
MODEL 5
REMARK VINA RESULT:      -6.7      3.045      7.113
REMARK  Name = 320380
REMARK  6 active torsions:
REMARK  status: ('A' for Active; 'I' for Inactive)
REMARK    1  A    between atoms: C_3  and  O_5
REMARK    2  A    between atoms: O_5  and  C_8
REMARK    3  A    between atoms: C_14  and  C_15
REMARK    4  A    between atoms: CA_16  and  N_17
REMARK    5  A    between atoms: CA_16  and  C_18
REMARK    6  A    between atoms: C_19  and  C_23
REMARK                            x       y       z     vdW  Elec       q    Type
REMARK                         _______ _______ _______ _____ _____    ______ ____
ROOT
ATOM      1  C   UNL     1      24.000  40.751  45.868  0.00  0.00    +0.000 C 
ATOM      2  CA  UNL     1      23.785  41.562  46.918  0.00  0.00    +0.000 C 
ENDROOT
BRANCH   1   8
ATOM      3  C   UNL     1      20.839  39.398  43.389  0.00  0.00    +0.000 A 
ATOM      4  C   UNL     1      21.563  38.471  44.136  0.00  0.00    +0.000 A 
ATOM      5  C   UNL     1      21.308  40.709  43.256  0.00  0.00    +0.000 A 
ATOM      6  C   UNL     1      22.665  38.895  44.883  0.00  0.00    +0.000 A 
ATOM      7  C   UNL     1      22.401  41.135  44.014  0.00  0.00    +0.000 A 
ATOM      8  C   UNL     1      23.056  40.237  44.872  0.00  0.00    +0.000 A 
BRANCH   3   9
ATOM      9  O   UNL     1      19.647  38.980  42.835  0.00  0.00    +0.000 OA
BRANCH   9  12
ATOM     10 BR   UNL     1      17.881  41.508  42.912  0.00  0.00    +0.000 Br
ATOM     11  C   UNL     1      17.689  39.884  43.875  0.00  0.00    +0.000 A 
ATOM     12  C   UNL     1      18.570  38.812  43.690  0.00  0.00    +0.000 A 
ATOM     13  C   UNL     1      16.634  39.780  44.789  0.00  0.00    +0.000 A 
ATOM     14  C   UNL     1      18.318  37.605  44.361  0.00  0.00    +0.000 A 
ATOM     15  C   UNL     1      16.442  38.600  45.509  0.00  0.00    +0.000 A 
ATOM     16  C   UNL     1      17.275  37.508  45.285  0.00  0.00    +0.000 A 
ENDBRANCH   9  12
ENDBRANCH   3   9
ENDBRANCH   1   8
BRANCH   2  17
ATOM     17  N   UNL     1      22.628  42.252  47.225  0.00  0.00    +0.000 N 
ATOM     18  C   UNL     1      21.392  41.663  47.429  0.00  0.00    +0.000 C 
ATOM     19  O   UNL     1      21.178  40.457  47.376  0.00  0.00    +0.000 OA
ATOM     20  H   UNL     1      22.686  43.232  47.305  0.00  0.00    +0.000 HD
BRANCH  18  21
ATOM     21  C   UNL     1      20.227  42.575  47.574  0.00  0.00    +0.000 A 
ATOM     22  C   UNL     1      19.612  43.194  46.484  0.00  0.00    +0.000 A 
ATOM     23  C   UNL     1      19.671  42.744  48.850  0.00  0.00    +0.000 A 
ATOM     24  F   UNL     1      20.101  43.041  45.243  0.00  0.00    +0.000 F 
ATOM     25  C   UNL     1      18.454  43.952  46.646  0.00  0.00    +0.000 A 
ATOM     26  C   UNL     1      18.509  43.502  49.017  0.00  0.00    +0.000 A 
ATOM     27  C   UNL     1      17.897  44.099  47.916  0.00  0.00    +0.000 A 
ENDBRANCH  18  21
ENDBRANCH   2  17
BRANCH   2  28
ATOM     28  C   UNL     1      24.936  41.704  47.873  0.00  0.00    +0.000 C 
ATOM     29  O   UNL     1      26.105  41.474  47.615  0.00  0.00    +0.000 OA
ATOM     30  OXT UNL     1      24.512  42.127  49.087  0.00  0.00    +0.000 OA
ENDBRANCH   2  28
TORSDOF 6
ENDMDL
MODEL 6
REMARK VINA RESULT:      -6.6      2.524      3.807
REMARK  Name = 320380
REMARK  6 active torsions:
REMARK  status: ('A' for Active; 'I' for Inactive)
REMARK    1  A    between atoms: C_3  and  O_5
REMARK    2  A    between atoms: O_5  and  C_8
REMARK    3  A    between atoms: C_14  and  C_15
REMARK    4  A    between atoms: CA_16  and  N_17
REMARK    5  A    between atoms: CA_16  and  C_18
REMARK    6  A    between atoms: C_19  and  C_23
REMARK                            x       y       z     vdW  Elec       q    Type
REMARK                         _______ _______ _______ _____ _____    ______ ____
ROOT
ATOM      1  C   UNL     1      20.936  38.865  44.227  0.00  0.00    +0.000 C 
ATOM      2  CA  UNL     1      19.741  39.458  44.397  0.00  0.00    +0.000 C 
ENDROOT
BRANCH   1   8
ATOM      3  C   UNL     1      24.508  40.252  46.038  0.00  0.00    +0.000 A 
ATOM      4  C   UNL     1      23.829  41.082  45.148  0.00  0.00    +0.000 A 
ATOM      5  C   UNL     1      24.165  38.900  46.134  0.00  0.00    +0.000 A 
ATOM      6  C   UNL     1      22.704  40.599  44.475  0.00  0.00    +0.000 A 
ATOM      7  C   UNL     1      23.031  38.423  45.472  0.00  0.00    +0.000 A 
ATOM      8  C   UNL     1      22.265  39.288  44.676  0.00  0.00    +0.000 A 
BRANCH   3   9
ATOM      9  O   UNL     1      25.482  40.825  46.829  0.00  0.00    +0.000 OA
BRANCH   9  12
ATOM     10 BR   UNL     1      27.853  41.524  48.674  0.00  0.00    +0.000 Br
ATOM     11  C   UNL     1      26.010  41.920  48.892  0.00  0.00    +0.000 A 
ATOM     12  C   UNL     1      25.062  41.558  47.928  0.00  0.00    +0.000 A 
ATOM     13  C   UNL     1      25.614  42.593  50.054  0.00  0.00    +0.000 A 
ATOM     14  C   UNL     1      23.730  41.964  48.103  0.00  0.00    +0.000 A 
ATOM     15  C   UNL     1      24.272  42.921  50.251  0.00  0.00    +0.000 A 
ATOM     16  C   UNL     1      23.332  42.619  49.270  0.00  0.00    +0.000 A 
ENDBRANCH   9  12
ENDBRANCH   3   9
ENDBRANCH   1   8
BRANCH   2  17
ATOM     17  N   UNL     1      19.450  40.549  45.193  0.00  0.00    +0.000 N 
ATOM     18  C   UNL     1      18.557  40.534  46.252  0.00  0.00    +0.000 C 
ATOM     19  O   UNL     1      17.930  39.548  46.619  0.00  0.00    +0.000 OA
ATOM     20  H   UNL     1      19.909  41.397  44.994  0.00  0.00    +0.000 HD
BRANCH  18  21
ATOM     21  C   UNL     1      18.237  41.843  46.881  0.00  0.00    +0.000 A 
ATOM     22  C   UNL     1      19.138  42.527  47.700  0.00  0.00    +0.000 A 
ATOM     23  C   UNL     1      17.016  42.452  46.562  0.00  0.00    +0.000 A 
ATOM     24  F   UNL     1      20.327  41.988  48.012  0.00  0.00    +0.000 F 
ATOM     25  C   UNL     1      18.848  43.802  48.179  0.00  0.00    +0.000 A 
ATOM     26  C   UNL     1      16.721  43.731  47.040  0.00  0.00    +0.000 A 
ATOM     27  C   UNL     1      17.638  44.410  47.841  0.00  0.00    +0.000 A 
ENDBRANCH  18  21
ENDBRANCH   2  17
BRANCH   2  28
ATOM     28  C   UNL     1      18.607  38.872  43.605  0.00  0.00    +0.000 C 
ATOM     29  O   UNL     1      18.279  37.698  43.598  0.00  0.00    +0.000 OA
ATOM     30  OXT UNL     1      17.976  39.824  42.879  0.00  0.00    +0.000 OA
ENDBRANCH   2  28
TORSDOF 6
ENDMDL
MODEL 7
REMARK VINA RESULT:      -6.4      1.957      2.578
REMARK  Name = 320380
REMARK  6 active torsions:
REMARK  status: ('A' for Active; 'I' for Inactive)
REMARK    1  A    between atoms: C_3  and  O_5
REMARK    2  A    between atoms: O_5  and  C_8
REMARK    3  A    between atoms: C_14  and  C_15
REMARK    4  A    between atoms: CA_16  and  N_17
REMARK    5  A    between atoms: CA_16  and  C_18
REMARK    6  A    between atoms: C_19  and  C_23
REMARK                            x       y       z     vdW  Elec       q    Type
REMARK                         _______ _______ _______ _____ _____    ______ ____
ROOT
ATOM      1  C   UNL     1      18.819  43.475  45.297  0.00  0.00    +0.000 C 
ATOM      2  CA  UNL     1      17.756  42.716  44.980  0.00  0.00    +0.000 C 
ENDROOT
BRANCH   1   8
ATOM      3  C   UNL     1      22.056  42.073  47.646  0.00  0.00    +0.000 A 
ATOM      4  C   UNL     1      20.786  42.144  48.212  0.00  0.00    +0.000 A 
ATOM      5  C   UNL     1      22.312  42.693  46.418  0.00  0.00    +0.000 A 
ATOM      6  C   UNL     1      19.731  42.692  47.477  0.00  0.00    +0.000 A 
ATOM      7  C   UNL     1      21.254  43.227  45.678  0.00  0.00    +0.000 A 
ATOM      8  C   UNL     1      19.946  43.184  46.187  0.00  0.00    +0.000 A 
BRANCH   3   9
ATOM      9  O   UNL     1      23.015  41.345  48.319  0.00  0.00    +0.000 OA
BRANCH   9  12
ATOM     10 BR   UNL     1      25.875  42.336  47.720  0.00  0.00    +0.000 Br
ATOM     11  C   UNL     1      25.036  40.715  47.199  0.00  0.00    +0.000 A 
ATOM     12  C   UNL     1      23.730  40.405  47.594  0.00  0.00    +0.000 A 
ATOM     13  C   UNL     1      25.762  39.824  46.400  0.00  0.00    +0.000 A 
ATOM     14  C   UNL     1      23.200  39.149  47.256  0.00  0.00    +0.000 A 
ATOM     15  C   UNL     1      25.194  38.612  46.005  0.00  0.00    +0.000 A 
ATOM     16  C   UNL     1      23.919  38.268  46.445  0.00  0.00    +0.000 A 
ENDBRANCH   9  12
ENDBRANCH   3   9
ENDBRANCH   1   8
BRANCH   2  17
ATOM     17  N   UNL     1      17.547  41.387  45.295  0.00  0.00    +0.000 N 
ATOM     18  C   UNL     1      18.293  40.334  44.793  0.00  0.00    +0.000 C 
ATOM     19  O   UNL     1      19.236  40.455  44.021  0.00  0.00    +0.000 OA
ATOM     20  H   UNL     1      16.817  41.173  45.920  0.00  0.00    +0.000 HD
BRANCH  18  21
ATOM     21  C   UNL     1      17.812  38.961  45.102  0.00  0.00    +0.000 A 
ATOM     22  C   UNL     1      16.929  38.689  46.149  0.00  0.00    +0.000 A 
ATOM     23  C   UNL     1      18.192  37.916  44.248  0.00  0.00    +0.000 A 
ATOM     24  F   UNL     1      16.524  39.665  46.977  0.00  0.00    +0.000 F 
ATOM     25  C   UNL     1      16.412  37.409  46.339  0.00  0.00    +0.000 A 
ATOM     26  C   UNL     1      17.676  36.632  44.434  0.00  0.00    +0.000 A 
ATOM     27  C   UNL     1      16.781  36.379  45.473  0.00  0.00    +0.000 A 
ENDBRANCH  18  21
ENDBRANCH   2  17
BRANCH   2  28
ATOM     28  C   UNL     1      16.665  43.414  44.217  0.00  0.00    +0.000 C 
ATOM     29  O   UNL     1      16.178  44.493  44.504  0.00  0.00    +0.000 OA
ATOM     30  OXT UNL     1      16.275  42.683  43.146  0.00  0.00    +0.000 OA
ENDBRANCH   2  28
TORSDOF 6
ENDMDL
MODEL 8
REMARK VINA RESULT:      -6.2      2.473      3.783
REMARK  Name = 320380
REMARK  6 active torsions:
REMARK  status: ('A' for Active; 'I' for Inactive)
REMARK    1  A    between atoms: C_3  and  O_5
REMARK    2  A    between atoms: O_5  and  C_8
REMARK    3  A    between atoms: C_14  and  C_15
REMARK    4  A    between atoms: CA_16  and  N_17
REMARK    5  A    between atoms: CA_16  and  C_18
REMARK    6  A    between atoms: C_19  and  C_23
REMARK                            x       y       z     vdW  Elec       q    Type
REMARK                         _______ _______ _______ _____ _____    ______ ____
ROOT
ATOM      1  C   UNL     1      20.593  39.148  44.050  0.00  0.00    +0.000 C 
ATOM      2  CA  UNL     1      19.404  39.737  44.262  0.00  0.00    +0.000 C 
ENDROOT
BRANCH   1   8
ATOM      3  C   UNL     1      24.400  40.290  45.522  0.00  0.00    +0.000 A 
ATOM      4  C   UNL     1      23.377  41.234  45.476  0.00  0.00    +0.000 A 
ATOM      5  C   UNL     1      24.255  39.068  44.858  0.00  0.00    +0.000 A 
ATOM      6  C   UNL     1      22.147  40.893  44.907  0.00  0.00    +0.000 A 
ATOM      7  C   UNL     1      23.021  38.723  44.302  0.00  0.00    +0.000 A 
ATOM      8  C   UNL     1      21.943  39.620  44.368  0.00  0.00    +0.000 A 
BRANCH   3   9
ATOM      9  O   UNL     1      25.518  40.596  46.269  0.00  0.00    +0.000 OA
BRANCH   9  12
ATOM     10 BR   UNL     1      23.472  39.200  48.108  0.00  0.00    +0.000 Br
ATOM     11  C   UNL     1      24.394  40.838  48.370  0.00  0.00    +0.000 A 
ATOM     12  C   UNL     1      25.327  41.312  47.440  0.00  0.00    +0.000 A 
ATOM     13  C   UNL     1      24.116  41.573  49.528  0.00  0.00    +0.000 A 
ATOM     14  C   UNL     1      26.045  42.481  47.737  0.00  0.00    +0.000 A 
ATOM     15  C   UNL     1      24.781  42.775  49.773  0.00  0.00    +0.000 A 
ATOM     16  C   UNL     1      25.755  43.222  48.885  0.00  0.00    +0.000 A 
ENDBRANCH   9  12
ENDBRANCH   3   9
ENDBRANCH   1   8
BRANCH   2  17
ATOM     17  N   UNL     1      19.150  40.883  44.994  0.00  0.00    +0.000 N 
ATOM     18  C   UNL     1      18.671  40.895  46.292  0.00  0.00    +0.000 C 
ATOM     19  O   UNL     1      18.427  39.894  46.954  0.00  0.00    +0.000 OA
ATOM     20  H   UNL     1      19.323  41.750  44.561  0.00  0.00    +0.000 HD
BRANCH  18  21
ATOM     21  C   UNL     1      18.291  42.218  46.856  0.00  0.00    +0.000 A 
ATOM     22  C   UNL     1      17.121  42.887  46.489  0.00  0.00    +0.000 A 
ATOM     23  C   UNL     1      19.096  42.767  47.863  0.00  0.00    +0.000 A 
ATOM     24  F   UNL     1      16.311  42.385  45.543  0.00  0.00    +0.000 F 
ATOM     25  C   UNL     1      16.741  44.069  47.121  0.00  0.00    +0.000 A 
ATOM     26  C   UNL     1      18.718  43.951  48.500  0.00  0.00    +0.000 A 
ATOM     27  C   UNL     1      17.538  44.599  48.135  0.00  0.00    +0.000 A 
ENDBRANCH  18  21
ENDBRANCH   2  17
BRANCH   2  28
ATOM     28  C   UNL     1      18.226  39.079  43.601  0.00  0.00    +0.000 C 
ATOM     29  O   UNL     1      17.948  37.894  43.665  0.00  0.00    +0.000 OA
ATOM     30  OXT UNL     1      17.491  39.979  42.906  0.00  0.00    +0.000 OA
ENDBRANCH   2  28
TORSDOF 6
ENDMDL
MODEL 9
REMARK VINA RESULT:      -5.9      1.518      2.100
REMARK  Name = 320380
REMARK  6 active torsions:
REMARK  status: ('A' for Active; 'I' for Inactive)
REMARK    1  A    between atoms: C_3  and  O_5
REMARK    2  A    between atoms: O_5  and  C_8
REMARK    3  A    between atoms: C_14  and  C_15
REMARK    4  A    between atoms: CA_16  and  N_17
REMARK    5  A    between atoms: CA_16  and  C_18
REMARK    6  A    between atoms: C_19  and  C_23
REMARK                            x       y       z     vdW  Elec       q    Type
REMARK                         _______ _______ _______ _____ _____    ______ ____
ROOT
ATOM      1  C   UNL     1      20.939  41.808  43.502  0.00  0.00    +0.000 C 
ATOM      2  CA  UNL     1      19.596  41.841  43.460  0.00  0.00    +0.000 C 
ENDROOT
BRANCH   1   8
ATOM      3  C   UNL     1      23.771  40.731  46.466  0.00  0.00    +0.000 A 
ATOM      4  C   UNL     1      24.029  40.420  45.132  0.00  0.00    +0.000 A 
ATOM      5  C   UNL     1      22.495  41.153  46.852  0.00  0.00    +0.000 A 
ATOM      6  C   UNL     1      23.061  40.686  44.161  0.00  0.00    +0.000 A 
ATOM      7  C   UNL     1      21.533  41.433  45.878  0.00  0.00    +0.000 A 
ATOM      8  C   UNL     1      21.832  41.246  44.519  0.00  0.00    +0.000 A 
BRANCH   3   9
ATOM      9  O   UNL     1      24.821  40.643  47.356  0.00  0.00    +0.000 OA
BRANCH   9  12
ATOM     10 BR   UNL     1      26.795  42.993  47.041  0.00  0.00    +0.000 Br
ATOM     11  C   UNL     1      25.660  42.571  48.502  0.00  0.00    +0.000 A 
ATOM     12  C   UNL     1      24.790  41.476  48.464  0.00  0.00    +0.000 A 
ATOM     13  C   UNL     1      25.714  43.390  49.636  0.00  0.00    +0.000 A 
ATOM     14  C   UNL     1      23.909  41.273  49.537  0.00  0.00    +0.000 A 
ATOM     15  C   UNL     1      24.887  43.130  50.730  0.00  0.00    +0.000 A 
ATOM     16  C   UNL     1      23.975  42.080  50.675  0.00  0.00    +0.000 A 
ENDBRANCH   9  12
ENDBRANCH   3   9
ENDBRANCH   1   8
BRANCH   2  17
ATOM     17  N   UNL     1      18.711  41.195  44.304  0.00  0.00    +0.000 N 
ATOM     18  C   UNL     1      18.605  39.821  44.427  0.00  0.00    +0.000 C 
ATOM     19  O   UNL     1      19.291  39.011  43.815  0.00  0.00    +0.000 OA
ATOM     20  H   UNL     1      18.116  41.752  44.855  0.00  0.00    +0.000 HD
BRANCH  18  21
ATOM     21  C   UNL     1      17.478  39.304  45.250  0.00  0.00    +0.000 A 
ATOM     22  C   UNL     1      17.027  37.986  45.169  0.00  0.00    +0.000 A 
ATOM     23  C   UNL     1      16.912  40.156  46.209  0.00  0.00    +0.000 A 
ATOM     24  F   UNL     1      17.558  37.132  44.279  0.00  0.00    +0.000 F 
ATOM     25  C   UNL     1      16.046  37.507  46.035  0.00  0.00    +0.000 A 
ATOM     26  C   UNL     1      15.929  39.680  47.079  0.00  0.00    +0.000 A 
ATOM     27  C   UNL     1      15.501  38.355  46.999  0.00  0.00    +0.000 A 
ENDBRANCH  18  21
ENDBRANCH   2  17
BRANCH   2  28
ATOM     28  C   UNL     1      19.001  42.703  42.383  0.00  0.00    +0.000 C 
ATOM     29  O   UNL     1      17.973  42.467  41.772  0.00  0.00    +0.000 OA
ATOM     30  OXT UNL     1      19.762  43.801  42.162  0.00  0.00    +0.000 OA
ENDBRANCH   2  28
TORSDOF 6
ENDMDL
