MODEL 1
REMARK VINA RESULT:      -7.1      0.000      0.000
REMARK  Name = 321221
REMARK  7 active torsions:
REMARK  status: ('A' for Active; 'I' for Inactive)
REMARK    1  A    between atoms: C_3  and  O_5
REMARK    2  A    between atoms: O_5  and  C_8
REMARK    3  A    between atoms: C_14  and  C_15
REMARK    4  A    between atoms: CA_16  and  N_17
REMARK    5  A    between atoms: CA_16  and  C_18
REMARK    6  A    between atoms: C_19  and  C_23
REMARK    7  A    between atoms: C_28  and  C_29
REMARK                            x       y       z     vdW  Elec       q    Type
REMARK                         _______ _______ _______ _____ _____    ______ ____
ROOT
ATOM      1  C   UNL     1      20.176  42.629  43.493  0.00  0.00    +0.000 C 
ATOM      2  CA  UNL     1      19.061  42.007  43.070  0.00  0.00    +0.000 C 
ENDROOT
BRANCH   1   8
ATOM      3  C   UNL     1      22.401  41.271  46.840  0.00  0.00    +0.000 A 
ATOM      4  C   UNL     1      22.036  42.615  46.767  0.00  0.00    +0.000 A 
ATOM      5  C   UNL     1      22.266  40.449  45.719  0.00  0.00    +0.000 A 
ATOM      6  C   UNL     1      21.391  43.097  45.621  0.00  0.00    +0.000 A 
ATOM      7  C   UNL     1      21.603  40.926  44.584  0.00  0.00    +0.000 A 
ATOM      8  C   UNL     1      21.120  42.238  44.548  0.00  0.00    +0.000 A 
BRANCH   3   9
ATOM      9  O   UNL     1      22.858  40.798  48.055  0.00  0.00    +0.000 OA
BRANCH   9  12
ATOM     10 BR   UNL     1      25.640  40.537  46.734  0.00  0.00    +0.000 Br
ATOM     11  C   UNL     1      25.134  41.514  48.279  0.00  0.00    +0.000 A 
ATOM     12  C   UNL     1      23.807  41.554  48.724  0.00  0.00    +0.000 A 
ATOM     13  C   UNL     1      26.134  42.208  48.974  0.00  0.00    +0.000 A 
ATOM     14  C   UNL     1      23.485  42.375  49.816  0.00  0.00    +0.000 A 
ATOM     15  C   UNL     1      25.811  42.960  50.105  0.00  0.00    +0.000 A 
ATOM     16  C   UNL     1      24.484  43.053  50.518  0.00  0.00    +0.000 A 
ENDBRANCH   9  12
ENDBRANCH   3   9
ENDBRANCH   1   8
BRANCH   2  17
ATOM     17  N   UNL     1      18.639  40.739  43.451  0.00  0.00    +0.000 N 
ATOM     18  C   UNL     1      17.758  40.564  44.507  0.00  0.00    +0.000 C 
ATOM     19  O   UNL     1      17.367  41.487  45.220  0.00  0.00    +0.000 OA
ATOM     20  H   UNL     1      18.972  39.952  42.963  0.00  0.00    +0.000 HD
BRANCH  18  21
ATOM     21  C   UNL     1      17.401  39.175  44.882  0.00  0.00    +0.000 A 
ATOM     22  C   UNL     1      18.029  38.143  44.174  0.00  0.00    +0.000 A 
ATOM     23  C   UNL     1      16.538  38.867  45.939  0.00  0.00    +0.000 A 
ATOM     24  C   UNL     1      17.822  36.813  44.529  0.00  0.00    +0.000 A 
ATOM     25  C   UNL     1      16.337  37.529  46.295  0.00  0.00    +0.000 A 
ATOM     26  C   UNL     1      16.988  36.496  45.604  0.00  0.00    +0.000 A 
ATOM     27  C   UNL     1      16.831  35.067  46.038  0.00  0.00    +0.000 C 
ENDBRANCH  18  21
ENDBRANCH   2  17
BRANCH   2  28
ATOM     28  C   UNL     1      18.222  42.774  42.091  0.00  0.00    +0.000 C 
ATOM     29  O   UNL     1      18.410  43.930  41.753  0.00  0.00    +0.000 OA
ATOM     30  OXT UNL     1      17.203  42.017  41.620  0.00  0.00    +0.000 OA
ENDBRANCH   2  28
TORSDOF 6
ENDMDL
MODEL 2
REMARK VINA RESULT:      -6.2      3.368      8.053
REMARK  Name = 321221
REMARK  7 active torsions:
REMARK  status: ('A' for Active; 'I' for Inactive)
REMARK    1  A    between atoms: C_3  and  O_5
REMARK    2  A    between atoms: O_5  and  C_8
REMARK    3  A    between atoms: C_14  and  C_15
REMARK    4  A    between atoms: CA_16  and  N_17
REMARK    5  A    between atoms: CA_16  and  C_18
REMARK    6  A    between atoms: C_19  and  C_23
REMARK    7  A    between atoms: C_28  and  C_29
REMARK                            x       y       z     vdW  Elec       q    Type
REMARK                         _______ _______ _______ _____ _____    ______ ____
ROOT
ATOM      1  C   UNL     1      23.225  38.913  44.607  0.00  0.00    +0.000 C 
ATOM      2  CA  UNL     1      23.852  38.722  45.781  0.00  0.00    +0.000 C 
ENDROOT
BRANCH   1   8
ATOM      3  C   UNL     1      20.186  41.793  43.921  0.00  0.00    +0.000 A 
ATOM      4  C   UNL     1      20.215  40.637  43.141  0.00  0.00    +0.000 A 
ATOM      5  C   UNL     1      21.280  42.119  44.726  0.00  0.00    +0.000 A 
ATOM      6  C   UNL     1      21.270  39.727  43.288  0.00  0.00    +0.000 A 
ATOM      7  C   UNL     1      22.321  41.201  44.888  0.00  0.00    +0.000 A 
ATOM      8  C   UNL     1      22.298  39.980  44.206  0.00  0.00    +0.000 A 
BRANCH   3   9
ATOM      9  O   UNL     1      19.038  42.561  43.883  0.00  0.00    +0.000 OA
BRANCH   9  12
ATOM     10 BR   UNL     1      16.829  40.403  44.003  0.00  0.00    +0.000 Br
ATOM     11  C   UNL     1      17.222  41.785  45.242  0.00  0.00    +0.000 A 
ATOM     12  C   UNL     1      18.295  42.664  45.048  0.00  0.00    +0.000 A 
ATOM     13  C   UNL     1      16.404  41.906  46.373  0.00  0.00    +0.000 A 
ATOM     14  C   UNL     1      18.590  43.601  46.051  0.00  0.00    +0.000 A 
ATOM     15  C   UNL     1      16.664  42.893  47.325  0.00  0.00    +0.000 A 
ATOM     16  C   UNL     1      17.765  43.731  47.171  0.00  0.00    +0.000 A 
ENDBRANCH   9  12
ENDBRANCH   3   9
ENDBRANCH   1   8
BRANCH   2  17
ATOM     17  N   UNL     1      23.876  39.612  46.847  0.00  0.00    +0.000 N 
ATOM     18  C   UNL     1      24.851  40.593  46.940  0.00  0.00    +0.000 C 
ATOM     19  O   UNL     1      25.793  40.686  46.152  0.00  0.00    +0.000 OA
ATOM     20  H   UNL     1      23.190  39.544  47.549  0.00  0.00    +0.000 HD
BRANCH  18  21
ATOM     21  C   UNL     1      24.838  41.466  48.138  0.00  0.00    +0.000 A 
ATOM     22  C   UNL     1      23.612  41.622  48.798  0.00  0.00    +0.000 A 
ATOM     23  C   UNL     1      25.989  42.066  48.658  0.00  0.00    +0.000 A 
ATOM     24  C   UNL     1      23.535  42.347  49.984  0.00  0.00    +0.000 A 
ATOM     25  C   UNL     1      25.906  42.790  49.853  0.00  0.00    +0.000 A 
ATOM     26  C   UNL     1      24.685  42.923  50.531  0.00  0.00    +0.000 A 
ATOM     27  C   UNL     1      24.615  43.632  51.852  0.00  0.00    +0.000 C 
ENDBRANCH  18  21
ENDBRANCH   2  17
BRANCH   2  28
ATOM     28  C   UNL     1      24.592  37.424  45.918  0.00  0.00    +0.000 C 
ATOM     29  O   UNL     1      25.626  37.136  45.340  0.00  0.00    +0.000 OA
ATOM     30  OXT UNL     1      23.960  36.587  46.773  0.00  0.00    +0.000 OA
ENDBRANCH   2  28
TORSDOF 6
ENDMDL
MODEL 3
REMARK VINA RESULT:      -6.1      3.014      7.269
REMARK  Name = 321221
REMARK  7 active torsions:
REMARK  status: ('A' for Active; 'I' for Inactive)
REMARK    1  A    between atoms: C_3  and  O_5
REMARK    2  A    between atoms: O_5  and  C_8
REMARK    3  A    between atoms: C_14  and  C_15
REMARK    4  A    between atoms: CA_16  and  N_17
REMARK    5  A    between atoms: CA_16  and  C_18
REMARK    6  A    between atoms: C_19  and  C_23
REMARK    7  A    between atoms: C_28  and  C_29
REMARK                            x       y       z     vdW  Elec       q    Type
REMARK                         _______ _______ _______ _____ _____    ______ ____
ROOT
ATOM      1  C   UNL     1      24.112  40.714  46.006  0.00  0.00    +0.000 C 
ATOM      2  CA  UNL     1      23.871  41.569  47.016  0.00  0.00    +0.000 C 
ENDROOT
BRANCH   1   8
ATOM      3  C   UNL     1      21.007  39.383  43.440  0.00  0.00    +0.000 A 
ATOM      4  C   UNL     1      21.686  38.451  44.225  0.00  0.00    +0.000 A 
ATOM      5  C   UNL     1      21.508  40.679  43.305  0.00  0.00    +0.000 A 
ATOM      6  C   UNL     1      22.779  38.861  44.999  0.00  0.00    +0.000 A 
ATOM      7  C   UNL     1      22.585  41.092  44.094  0.00  0.00    +0.000 A 
ATOM      8  C   UNL     1      23.195  40.198  44.980  0.00  0.00    +0.000 A 
BRANCH   3   9
ATOM      9  O   UNL     1      19.826  38.979  42.847  0.00  0.00    +0.000 OA
BRANCH   9  12
ATOM     10 BR   UNL     1      18.128  41.562  42.866  0.00  0.00    +0.000 Br
ATOM     11  C   UNL     1      17.854  39.941  43.813  0.00  0.00    +0.000 A 
ATOM     12  C   UNL     1      18.711  38.845  43.659  0.00  0.00    +0.000 A 
ATOM     13  C   UNL     1      16.758  39.865  44.682  0.00  0.00    +0.000 A 
ATOM     14  C   UNL     1      18.396  37.644  44.314  0.00  0.00    +0.000 A 
ATOM     15  C   UNL     1      16.501  38.688  45.387  0.00  0.00    +0.000 A 
ATOM     16  C   UNL     1      17.313  37.573  45.193  0.00  0.00    +0.000 A 
ENDBRANCH   9  12
ENDBRANCH   3   9
ENDBRANCH   1   8
BRANCH   2  17
ATOM     17  N   UNL     1      22.700  42.291  47.212  0.00  0.00    +0.000 N 
ATOM     18  C   UNL     1      21.488  41.651  47.413  0.00  0.00    +0.000 C 
ATOM     19  O   UNL     1      21.350  40.429  47.346  0.00  0.00    +0.000 OA
ATOM     20  H   UNL     1      22.733  43.275  47.206  0.00  0.00    +0.000 HD
BRANCH  18  21
ATOM     21  C   UNL     1      20.279  42.496  47.560  0.00  0.00    +0.000 A 
ATOM     22  C   UNL     1      19.675  42.952  46.381  0.00  0.00    +0.000 A 
ATOM     23  C   UNL     1      19.695  42.786  48.797  0.00  0.00    +0.000 A 
ATOM     24  C   UNL     1      18.483  43.670  46.429  0.00  0.00    +0.000 A 
ATOM     25  C   UNL     1      18.494  43.504  48.839  0.00  0.00    +0.000 A 
ATOM     26  C   UNL     1      17.874  43.937  47.658  0.00  0.00    +0.000 A 
ATOM     27  C   UNL     1      16.547  44.637  47.703  0.00  0.00    +0.000 C 
ENDBRANCH  18  21
ENDBRANCH   2  17
BRANCH   2  28
ATOM     28  C   UNL     1      24.991  41.746  47.998  0.00  0.00    +0.000 C 
ATOM     29  O   UNL     1      26.168  41.523  47.774  0.00  0.00    +0.000 OA
ATOM     30  OXT UNL     1      24.531  42.185  49.192  0.00  0.00    +0.000 OA
ENDBRANCH   2  28
TORSDOF 6
ENDMDL
MODEL 4
REMARK VINA RESULT:      -5.5      3.116      7.318
REMARK  Name = 321221
REMARK  7 active torsions:
REMARK  status: ('A' for Active; 'I' for Inactive)
REMARK    1  A    between atoms: C_3  and  O_5
REMARK    2  A    between atoms: O_5  and  C_8
REMARK    3  A    between atoms: C_14  and  C_15
REMARK    4  A    between atoms: CA_16  and  N_17
REMARK    5  A    between atoms: CA_16  and  C_18
REMARK    6  A    between atoms: C_19  and  C_23
REMARK    7  A    between atoms: C_28  and  C_29
REMARK                            x       y       z     vdW  Elec       q    Type
REMARK                         _______ _______ _______ _____ _____    ______ ____
ROOT
ATOM      1  C   UNL     1      24.341  40.694  46.338  0.00  0.00    +0.000 C 
ATOM      2  CA  UNL     1      24.042  41.549  47.332  0.00  0.00    +0.000 C 
ENDROOT
BRANCH   1   8
ATOM      3  C   UNL     1      21.383  39.408  43.582  0.00  0.00    +0.000 A 
ATOM      4  C   UNL     1      21.907  38.492  44.494  0.00  0.00    +0.000 A 
ATOM      5  C   UNL     1      22.003  40.647  43.404  0.00  0.00    +0.000 A 
ATOM      6  C   UNL     1      22.954  38.876  45.340  0.00  0.00    +0.000 A 
ATOM      7  C   UNL     1      23.034  41.037  44.264  0.00  0.00    +0.000 A 
ATOM      8  C   UNL     1      23.482  40.171  45.267  0.00  0.00    +0.000 A 
BRANCH   3   9
ATOM      9  O   UNL     1      20.232  39.051  42.906  0.00  0.00    +0.000 OA
BRANCH   9  12
ATOM     10 BR   UNL     1      18.089  37.354  44.349  0.00  0.00    +0.000 Br
ATOM     11  C   UNL     1      17.997  39.157  43.766  0.00  0.00    +0.000 A 
ATOM     12  C   UNL     1      19.086  39.789  43.154  0.00  0.00    +0.000 A 
ATOM     13  C   UNL     1      16.797  39.852  43.967  0.00  0.00    +0.000 A 
ATOM     14  C   UNL     1      18.983  41.153  42.836  0.00  0.00    +0.000 A 
ATOM     15  C   UNL     1      16.684  41.186  43.575  0.00  0.00    +0.000 A 
ATOM     16  C   UNL     1      17.782  41.841  43.021  0.00  0.00    +0.000 A 
ENDBRANCH   9  12
ENDBRANCH   3   9
ENDBRANCH   1   8
BRANCH   2  17
ATOM     17  N   UNL     1      22.859  42.264  47.466  0.00  0.00    +0.000 N 
ATOM     18  C   UNL     1      21.636  41.617  47.552  0.00  0.00    +0.000 C 
ATOM     19  O   UNL     1      21.507  40.399  47.429  0.00  0.00    +0.000 OA
ATOM     20  H   UNL     1      22.889  43.247  47.499  0.00  0.00    +0.000 HD
BRANCH  18  21
ATOM     21  C   UNL     1      20.417  42.457  47.638  0.00  0.00    +0.000 A 
ATOM     22  C   UNL     1      19.848  42.878  46.430  0.00  0.00    +0.000 A 
ATOM     23  C   UNL     1      19.793  42.774  48.848  0.00  0.00    +0.000 A 
ATOM     24  C   UNL     1      18.651  43.587  46.421  0.00  0.00    +0.000 A 
ATOM     25  C   UNL     1      18.586  43.484  48.834  0.00  0.00    +0.000 A 
ATOM     26  C   UNL     1      18.001  43.881  47.623  0.00  0.00    +0.000 A 
ATOM     27  C   UNL     1      16.669  44.573  47.607  0.00  0.00    +0.000 C 
ENDBRANCH  18  21
ENDBRANCH   2  17
BRANCH   2  28
ATOM     28  C   UNL     1      25.109  41.735  48.371  0.00  0.00    +0.000 C 
ATOM     29  O   UNL     1      26.268  41.373  48.265  0.00  0.00    +0.000 OA
ATOM     30  OXT UNL     1      24.622  42.359  49.468  0.00  0.00    +0.000 OA
ENDBRANCH   2  28
TORSDOF 6
ENDMDL
MODEL 5
REMARK VINA RESULT:      -5.3      4.358      9.652
REMARK  Name = 321221
REMARK  7 active torsions:
REMARK  status: ('A' for Active; 'I' for Inactive)
REMARK    1  A    between atoms: C_3  and  O_5
REMARK    2  A    between atoms: O_5  and  C_8
REMARK    3  A    between atoms: C_14  and  C_15
REMARK    4  A    between atoms: CA_16  and  N_17
REMARK    5  A    between atoms: CA_16  and  C_18
REMARK    6  A    between atoms: C_19  and  C_23
REMARK    7  A    between atoms: C_28  and  C_29
REMARK                            x       y       z     vdW  Elec       q    Type
REMARK                         _______ _______ _______ _____ _____    ______ ____
ROOT
ATOM      1  C   UNL     1      24.904  41.220  47.437  0.00  0.00    +0.000 C 
ATOM      2  CA  UNL     1      25.984  42.014  47.542  0.00  0.00    +0.000 C 
ENDROOT
BRANCH   1   8
ATOM      3  C   UNL     1      21.508  40.845  44.922  0.00  0.00    +0.000 A 
ATOM      4  C   UNL     1      22.679  40.166  44.588  0.00  0.00    +0.000 A 
ATOM      5  C   UNL     1      21.531  41.830  45.912  0.00  0.00    +0.000 A 
ATOM      6  C   UNL     1      23.837  40.361  45.352  0.00  0.00    +0.000 A 
ATOM      7  C   UNL     1      22.680  42.008  46.687  0.00  0.00    +0.000 A 
ATOM      8  C   UNL     1      23.823  41.241  46.442  0.00  0.00    +0.000 A 
BRANCH   3   9
ATOM      9  O   UNL     1      20.348  40.480  44.266  0.00  0.00    +0.000 OA
BRANCH   9  12
ATOM     10 BR   UNL     1      18.578  42.628  42.921  0.00  0.00    +0.000 Br
ATOM     11  C   UNL     1      18.245  41.610  44.487  0.00  0.00    +0.000 A 
ATOM     12  C   UNL     1      19.149  40.642  44.942  0.00  0.00    +0.000 A 
ATOM     13  C   UNL     1      17.056  41.851  45.187  0.00  0.00    +0.000 A 
ATOM     14  C   UNL     1      18.796  39.856  46.050  0.00  0.00    +0.000 A 
ATOM     15  C   UNL     1      16.754  41.115  46.333  0.00  0.00    +0.000 A 
ATOM     16  C   UNL     1      17.618  40.108  46.757  0.00  0.00    +0.000 A 
ENDBRANCH   9  12
ENDBRANCH   3   9
ENDBRANCH   1   8
BRANCH   2  17
ATOM     17  N   UNL     1      26.401  42.953  46.607  0.00  0.00    +0.000 N 
ATOM     18  C   UNL     1      26.740  44.241  46.987  0.00  0.00    +0.000 C 
ATOM     19  O   UNL     1      26.613  44.662  48.137  0.00  0.00    +0.000 OA
ATOM     20  H   UNL     1      26.456  42.698  45.658  0.00  0.00    +0.000 HD
BRANCH  18  21
ATOM     21  C   UNL     1      27.122  45.197  45.919  0.00  0.00    +0.000 A 
ATOM     22  C   UNL     1      27.646  44.655  44.739  0.00  0.00    +0.000 A 
ATOM     23  C   UNL     1      26.917  46.576  46.019  0.00  0.00    +0.000 A 
ATOM     24  C   UNL     1      27.940  45.475  43.653  0.00  0.00    +0.000 A 
ATOM     25  C   UNL     1      27.209  47.396  44.923  0.00  0.00    +0.000 A 
ATOM     26  C   UNL     1      27.707  46.851  43.730  0.00  0.00    +0.000 A 
ATOM     27  C   UNL     1      27.945  47.722  42.531  0.00  0.00    +0.000 C 
ENDBRANCH  18  21
ENDBRANCH   2  17
BRANCH   2  28
ATOM     28  C   UNL     1      26.799  41.839  48.789  0.00  0.00    +0.000 C 
ATOM     29  O   UNL     1      27.870  41.261  48.858  0.00  0.00    +0.000 OA
ATOM     30  OXT UNL     1      26.190  42.405  49.857  0.00  0.00    +0.000 OA
ENDBRANCH   2  28
TORSDOF 6
ENDMDL
MODEL 6
REMARK VINA RESULT:      -5.2      2.898      8.363
REMARK  Name = 321221
REMARK  7 active torsions:
REMARK  status: ('A' for Active; 'I' for Inactive)
REMARK    1  A    between atoms: C_3  and  O_5
REMARK    2  A    between atoms: O_5  and  C_8
REMARK    3  A    between atoms: C_14  and  C_15
REMARK    4  A    between atoms: CA_16  and  N_17
REMARK    5  A    between atoms: CA_16  and  C_18
REMARK    6  A    between atoms: C_19  and  C_23
REMARK    7  A    between atoms: C_28  and  C_29
REMARK                            x       y       z     vdW  Elec       q    Type
REMARK                         _______ _______ _______ _____ _____    ______ ____
ROOT
ATOM      1  C   UNL     1      23.108  38.834  44.628  0.00  0.00    +0.000 C 
ATOM      2  CA  UNL     1      23.923  38.765  45.694  0.00  0.00    +0.000 C 
ENDROOT
BRANCH   1   8
ATOM      3  C   UNL     1      19.414  40.897  44.320  0.00  0.00    +0.000 A 
ATOM      4  C   UNL     1      19.819  40.069  43.274  0.00  0.00    +0.000 A 
ATOM      5  C   UNL     1      20.319  41.245  45.326  0.00  0.00    +0.000 A 
ATOM      6  C   UNL     1      21.080  39.463  43.317  0.00  0.00    +0.000 A 
ATOM      7  C   UNL     1      21.570  40.622  45.379  0.00  0.00    +0.000 A 
ATOM      8  C   UNL     1      21.937  39.692  44.401  0.00  0.00    +0.000 A 
BRANCH   3   9
ATOM      9  O   UNL     1      18.097  41.318  44.331  0.00  0.00    +0.000 OA
BRANCH   9  12
ATOM     10 BR   UNL     1      17.185  43.104  46.683  0.00  0.00    +0.000 Br
ATOM     11  C   UNL     1      16.735  41.301  46.304  0.00  0.00    +0.000 A 
ATOM     12  C   UNL     1      17.215  40.647  45.162  0.00  0.00    +0.000 A 
ATOM     13  C   UNL     1      15.899  40.629  47.204  0.00  0.00    +0.000 A 
ATOM     14  C   UNL     1      16.765  39.345  44.890  0.00  0.00    +0.000 A 
ATOM     15  C   UNL     1      15.521  39.307  46.961  0.00  0.00    +0.000 A 
ATOM     16  C   UNL     1      15.944  38.670  45.797  0.00  0.00    +0.000 A 
ENDBRANCH   9  12
ENDBRANCH   3   9
ENDBRANCH   1   8
BRANCH   2  17
ATOM     17  N   UNL     1      23.924  39.633  46.779  0.00  0.00    +0.000 N 
ATOM     18  C   UNL     1      24.818  40.689  46.852  0.00  0.00    +0.000 C 
ATOM     19  O   UNL     1      25.712  40.876  46.026  0.00  0.00    +0.000 OA
ATOM     20  H   UNL     1      23.278  39.494  47.509  0.00  0.00    +0.000 HD
BRANCH  18  21
ATOM     21  C   UNL     1      24.787  41.535  48.070  0.00  0.00    +0.000 A 
ATOM     22  C   UNL     1      23.548  41.695  48.702  0.00  0.00    +0.000 A 
ATOM     23  C   UNL     1      25.934  42.103  48.633  0.00  0.00    +0.000 A 
ATOM     24  C   UNL     1      23.451  42.394  49.902  0.00  0.00    +0.000 A 
ATOM     25  C   UNL     1      25.833  42.800  49.843  0.00  0.00    +0.000 A 
ATOM     26  C   UNL     1      24.596  42.937  50.491  0.00  0.00    +0.000 A 
ATOM     27  C   UNL     1      24.503  43.617  51.827  0.00  0.00    +0.000 C 
ENDBRANCH  18  21
ENDBRANCH   2  17
BRANCH   2  28
ATOM     28  C   UNL     1      24.921  37.644  45.678  0.00  0.00    +0.000 C 
ATOM     29  O   UNL     1      26.025  37.689  45.162  0.00  0.00    +0.000 OA
ATOM     30  OXT UNL     1      24.439  36.549  46.310  0.00  0.00    +0.000 OA
ENDBRANCH   2  28
TORSDOF 6
ENDMDL
MODEL 7
REMARK VINA RESULT:      -4.4      2.566      4.309
REMARK  Name = 321221
REMARK  7 active torsions:
REMARK  status: ('A' for Active; 'I' for Inactive)
REMARK    1  A    between atoms: C_3  and  O_5
REMARK    2  A    between atoms: O_5  and  C_8
REMARK    3  A    between atoms: C_14  and  C_15
REMARK    4  A    between atoms: CA_16  and  N_17
REMARK    5  A    between atoms: CA_16  and  C_18
REMARK    6  A    between atoms: C_19  and  C_23
REMARK    7  A    between atoms: C_28  and  C_29
REMARK                            x       y       z     vdW  Elec       q    Type
REMARK                         _______ _______ _______ _____ _____    ______ ____
ROOT
ATOM      1  C   UNL     1      20.589  38.721  44.262  0.00  0.00    +0.000 C 
ATOM      2  CA  UNL     1      19.374  39.291  44.351  0.00  0.00    +0.000 C 
ENDROOT
BRANCH   1   8
ATOM      3  C   UNL     1      24.169  40.338  45.865  0.00  0.00    +0.000 A 
ATOM      4  C   UNL     1      23.266  41.188  45.227  0.00  0.00    +0.000 A 
ATOM      5  C   UNL     1      24.026  38.953  45.749  0.00  0.00    +0.000 A 
ATOM      6  C   UNL     1      22.131  40.653  44.605  0.00  0.00    +0.000 A 
ATOM      7  C   UNL     1      22.882  38.422  45.147  0.00  0.00    +0.000 A 
ATOM      8  C   UNL     1      21.906  39.270  44.614  0.00  0.00    +0.000 A 
BRANCH   3   9
ATOM      9  O   UNL     1      25.166  40.919  46.625  0.00  0.00    +0.000 OA
BRANCH   9  12
ATOM     10 BR   UNL     1      27.612  41.576  48.398  0.00  0.00    +0.000 Br
ATOM     11  C   UNL     1      25.774  41.921  48.717  0.00  0.00    +0.000 A 
ATOM     12  C   UNL     1      24.788  41.585  47.780  0.00  0.00    +0.000 A 
ATOM     13  C   UNL     1      25.420  42.529  49.928  0.00  0.00    +0.000 A 
ATOM     14  C   UNL     1      23.459  41.957  48.037  0.00  0.00    +0.000 A 
ATOM     15  C   UNL     1      24.084  42.823  50.203  0.00  0.00    +0.000 A 
ATOM     16  C   UNL     1      23.105  42.549  49.251  0.00  0.00    +0.000 A 
ENDBRANCH   9  12
ENDBRANCH   3   9
ENDBRANCH   1   8
BRANCH   2  17
ATOM     17  N   UNL     1      19.084  40.504  44.963  0.00  0.00    +0.000 N 
ATOM     18  C   UNL     1      18.449  40.551  46.193  0.00  0.00    +0.000 C 
ATOM     19  O   UNL     1      18.027  39.551  46.775  0.00  0.00    +0.000 OA
ATOM     20  H   UNL     1      19.333  41.343  44.514  0.00  0.00    +0.000 HD
BRANCH  18  21
ATOM     21  C   UNL     1      18.126  41.887  46.751  0.00  0.00    +0.000 A 
ATOM     22  C   UNL     1      19.097  42.489  47.561  0.00  0.00    +0.000 A 
ATOM     23  C   UNL     1      16.949  42.577  46.446  0.00  0.00    +0.000 A 
ATOM     24  C   UNL     1      18.913  43.781  48.044  0.00  0.00    +0.000 A 
ATOM     25  C   UNL     1      16.771  43.878  46.931  0.00  0.00    +0.000 A 
ATOM     26  C   UNL     1      17.755  44.493  47.719  0.00  0.00    +0.000 A 
ATOM     27  C   UNL     1      17.595  45.916  48.171  0.00  0.00    +0.000 C 
ENDBRANCH  18  21
ENDBRANCH   2  17
BRANCH   2  28
ATOM     28  C   UNL     1      18.248  38.517  43.731  0.00  0.00    +0.000 C 
ATOM     29  O   UNL     1      18.144  37.302  43.728  0.00  0.00    +0.000 OA
ATOM     30  OXT UNL     1      17.343  39.342  43.157  0.00  0.00    +0.000 OA
ENDBRANCH   2  28
TORSDOF 6
ENDMDL
