MODEL 1
REMARK VINA RESULT:      -8.7      0.000      0.000
REMARK  Name = 323399
REMARK  8 active torsions:
REMARK  status: ('A' for Active; 'I' for Inactive)
REMARK    1  A    between atoms: C_3  and  O_5
REMARK    2  A    between atoms: O_5  and  C_8
REMARK    3  A    between atoms: C_14  and  C_15
REMARK    4  A    between atoms: CA_16  and  N_17
REMARK    5  A    between atoms: CA_16  and  C_18
REMARK    6  A    between atoms: C_19  and  C_23
REMARK    7  A    between atoms: C_23  and  C_24
REMARK    8  A    between atoms: C_24  and  C_25
REMARK                            x       y       z     vdW  Elec       q    Type
REMARK                         _______ _______ _______ _____ _____    ______ ____
ROOT
ATOM      1  C   UNL     1      20.051  42.170  43.547  0.00  0.00    +0.000 C 
ATOM      2  CA  UNL     1      18.705  42.187  43.536  0.00  0.00    +0.000 C 
ENDROOT
BRANCH   1   8
ATOM      3  C   UNL     1      22.397  41.083  46.922  0.00  0.00    +0.000 A 
ATOM      4  C   UNL     1      21.945  42.398  46.807  0.00  0.00    +0.000 A 
ATOM      5  C   UNL     1      22.265  40.204  45.844  0.00  0.00    +0.000 A 
ATOM      6  C   UNL     1      21.236  42.792  45.667  0.00  0.00    +0.000 A 
ATOM      7  C   UNL     1      21.509  40.578  44.740  0.00  0.00    +0.000 A 
ATOM      8  C   UNL     1      20.975  41.865  44.647  0.00  0.00    +0.000 A 
BRANCH   3   9
ATOM      9  O   UNL     1      22.922  40.677  48.132  0.00  0.00    +0.000 OA
BRANCH   9  12
ATOM     10 BR   UNL     1      25.644  40.568  46.663  0.00  0.00    +0.000 Br
ATOM     11  C   UNL     1      25.156  41.553  48.208  0.00  0.00    +0.000 A 
ATOM     12  C   UNL     1      23.857  41.513  48.727  0.00  0.00    +0.000 A 
ATOM     13  C   UNL     1      26.140  42.329  48.834  0.00  0.00    +0.000 A 
ATOM     14  C   UNL     1      23.543  42.327  49.828  0.00  0.00    +0.000 A 
ATOM     15  C   UNL     1      25.829  43.075  49.974  0.00  0.00    +0.000 A 
ATOM     16  C   UNL     1      24.529  43.080  50.465  0.00  0.00    +0.000 A 
ENDBRANCH   9  12
ENDBRANCH   3   9
ENDBRANCH   1   8
BRANCH   2  17
ATOM     17  N   UNL     1      17.864  41.945  44.612  0.00  0.00    +0.000 N 
ATOM     18  C   UNL     1      17.632  42.831  45.646  0.00  0.00    +0.000 C 
ATOM     19  O   UNL     1      17.975  44.009  45.640  0.00  0.00    +0.000 OA
ATOM     20  H   UNL     1      17.398  41.079  44.640  0.00  0.00    +0.000 HD
BRANCH  18  21
ATOM     21  C   UNL     1      16.797  42.233  46.769  0.00  0.00    +0.000 C 
BRANCH  21  22
ATOM     22  C   UNL     1      16.331  40.830  46.376  0.00  0.00    +0.000 C 
BRANCH  22  23
ATOM     23  C   UNL     1      16.992  39.677  47.151  0.00  0.00    +0.000 C 
ATOM     24  C   UNL     1      18.378  39.368  46.555  0.00  0.00    +0.000 C 
ATOM     25  C   UNL     1      16.161  38.388  47.192  0.00  0.00    +0.000 C 
ATOM     26  C   UNL     1      18.290  38.739  45.165  0.00  0.00    +0.000 C 
ATOM     27  C   UNL     1      16.055  37.698  45.834  0.00  0.00    +0.000 C 
ATOM     28  C   UNL     1      17.410  37.492  45.160  0.00  0.00    +0.000 C 
ENDBRANCH  22  23
ENDBRANCH  21  22
ENDBRANCH  18  21
ENDBRANCH   2  17
BRANCH   2  29
ATOM     29  C   UNL     1      18.076  42.447  42.195  0.00  0.00    +0.000 C 
ATOM     30  O   UNL     1      17.235  41.746  41.659  0.00  0.00    +0.000 OA
ATOM     31  OXT UNL     1      18.568  43.576  41.629  0.00  0.00    +0.000 OA
ENDBRANCH   2  29
TORSDOF 8
ENDMDL
MODEL 2
REMARK VINA RESULT:      -7.4      1.022      2.204
REMARK  Name = 323399
REMARK  8 active torsions:
REMARK  status: ('A' for Active; 'I' for Inactive)
REMARK    1  A    between atoms: C_3  and  O_5
REMARK    2  A    between atoms: O_5  and  C_8
REMARK    3  A    between atoms: C_14  and  C_15
REMARK    4  A    between atoms: CA_16  and  N_17
REMARK    5  A    between atoms: CA_16  and  C_18
REMARK    6  A    between atoms: C_19  and  C_23
REMARK    7  A    between atoms: C_23  and  C_24
REMARK    8  A    between atoms: C_24  and  C_25
REMARK                            x       y       z     vdW  Elec       q    Type
REMARK                         _______ _______ _______ _____ _____    ______ ____
ROOT
ATOM      1  C   UNL     1      19.921  42.300  43.708  0.00  0.00    +0.000 C 
ATOM      2  CA  UNL     1      18.789  41.651  43.380  0.00  0.00    +0.000 C 
ENDROOT
BRANCH   1   8
ATOM      3  C   UNL     1      22.456  41.167  46.928  0.00  0.00    +0.000 A 
ATOM      4  C   UNL     1      21.797  42.396  46.985  0.00  0.00    +0.000 A 
ATOM      5  C   UNL     1      22.453  40.430  45.743  0.00  0.00    +0.000 A 
ATOM      6  C   UNL     1      21.018  42.818  45.902  0.00  0.00    +0.000 A 
ATOM      7  C   UNL     1      21.633  40.819  44.691  0.00  0.00    +0.000 A 
ATOM      8  C   UNL     1      20.897  42.005  44.766  0.00  0.00    +0.000 A 
BRANCH   3   9
ATOM      9  O   UNL     1      23.055  40.695  48.079  0.00  0.00    +0.000 OA
BRANCH   9  12
ATOM     10 BR   UNL     1      25.796  40.627  46.641  0.00  0.00    +0.000 Br
ATOM     11  C   UNL     1      25.282  41.584  48.196  0.00  0.00    +0.000 A 
ATOM     12  C   UNL     1      23.978  41.527  48.698  0.00  0.00    +0.000 A 
ATOM     13  C   UNL     1      26.253  42.357  48.846  0.00  0.00    +0.000 A 
ATOM     14  C   UNL     1      23.644  42.321  49.808  0.00  0.00    +0.000 A 
ATOM     15  C   UNL     1      25.924  43.082  49.993  0.00  0.00    +0.000 A 
ATOM     16  C   UNL     1      24.618  43.070  50.469  0.00  0.00    +0.000 A 
ENDBRANCH   9  12
ENDBRANCH   3   9
ENDBRANCH   1   8
BRANCH   2  17
ATOM     17  N   UNL     1      18.256  40.539  44.015  0.00  0.00    +0.000 N 
ATOM     18  C   UNL     1      18.629  39.234  43.764  0.00  0.00    +0.000 C 
ATOM     19  O   UNL     1      19.610  38.906  43.105  0.00  0.00    +0.000 OA
ATOM     20  H   UNL     1      17.562  40.693  44.696  0.00  0.00    +0.000 HD
BRANCH  18  21
ATOM     21  C   UNL     1      17.760  38.215  44.488  0.00  0.00    +0.000 C 
BRANCH  21  22
ATOM     22  C   UNL     1      16.534  38.910  45.082  0.00  0.00    +0.000 C 
BRANCH  22  23
ATOM     23  C   UNL     1      16.517  39.018  46.616  0.00  0.00    +0.000 C 
ATOM     24  C   UNL     1      15.769  40.293  47.046  0.00  0.00    +0.000 C 
ATOM     25  C   UNL     1      17.908  39.004  47.264  0.00  0.00    +0.000 C 
ATOM     26  C   UNL     1      16.538  41.567  46.699  0.00  0.00    +0.000 C 
ATOM     27  C   UNL     1      18.719  40.264  46.972  0.00  0.00    +0.000 C 
ATOM     28  C   UNL     1      17.953  41.552  47.271  0.00  0.00    +0.000 C 
ENDBRANCH  22  23
ENDBRANCH  21  22
ENDBRANCH  18  21
ENDBRANCH   2  17
BRANCH   2  29
ATOM     29  C   UNL     1      18.076  42.177  42.164  0.00  0.00    +0.000 C 
ATOM     30  O   UNL     1      17.193  41.598  41.555  0.00  0.00    +0.000 OA
ATOM     31  OXT UNL     1      18.542  43.399  41.807  0.00  0.00    +0.000 OA
ENDBRANCH   2  29
TORSDOF 8
ENDMDL
MODEL 3
REMARK VINA RESULT:      -7.2      3.072      7.603
REMARK  Name = 323399
REMARK  8 active torsions:
REMARK  status: ('A' for Active; 'I' for Inactive)
REMARK    1  A    between atoms: C_3  and  O_5
REMARK    2  A    between atoms: O_5  and  C_8
REMARK    3  A    between atoms: C_14  and  C_15
REMARK    4  A    between atoms: CA_16  and  N_17
REMARK    5  A    between atoms: CA_16  and  C_18
REMARK    6  A    between atoms: C_19  and  C_23
REMARK    7  A    between atoms: C_23  and  C_24
REMARK    8  A    between atoms: C_24  and  C_25
REMARK                            x       y       z     vdW  Elec       q    Type
REMARK                         _______ _______ _______ _____ _____    ______ ____
ROOT
ATOM      1  C   UNL     1      22.438  42.476  48.797  0.00  0.00    +0.000 C 
ATOM      2  CA  UNL     1      23.604  41.805  48.835  0.00  0.00    +0.000 C 
ENDROOT
BRANCH   1   8
ATOM      3  C   UNL     1      18.685  41.565  47.016  0.00  0.00    +0.000 A 
ATOM      4  C   UNL     1      19.680  40.586  47.039  0.00  0.00    +0.000 A 
ATOM      5  C   UNL     1      18.994  42.879  47.373  0.00  0.00    +0.000 A 
ATOM      6  C   UNL     1      20.945  40.892  47.553  0.00  0.00    +0.000 A 
ATOM      7  C   UNL     1      20.230  43.167  47.939  0.00  0.00    +0.000 A 
ATOM      8  C   UNL     1      21.209  42.176  48.050  0.00  0.00    +0.000 A 
BRANCH   3   9
ATOM      9  O   UNL     1      17.402  41.183  46.683  0.00  0.00    +0.000 OA
BRANCH   9  12
ATOM     10 BR   UNL     1      16.886  38.249  45.844  0.00  0.00    +0.000 Br
ATOM     11  C   UNL     1      16.880  39.818  44.778  0.00  0.00    +0.000 A 
ATOM     12  C   UNL     1      17.103  41.083  45.332  0.00  0.00    +0.000 A 
ATOM     13  C   UNL     1      16.651  39.681  43.404  0.00  0.00    +0.000 A 
ATOM     14  C   UNL     1      17.008  42.212  44.499  0.00  0.00    +0.000 A 
ATOM     15  C   UNL     1      16.635  40.807  42.577  0.00  0.00    +0.000 A 
ATOM     16  C   UNL     1      16.806  42.073  43.126  0.00  0.00    +0.000 A 
ENDBRANCH   9  12
ENDBRANCH   3   9
ENDBRANCH   1   8
BRANCH   2  17
ATOM     17  N   UNL     1      23.925  40.659  48.123  0.00  0.00    +0.000 N 
ATOM     18  C   UNL     1      24.707  40.632  46.985  0.00  0.00    +0.000 C 
ATOM     19  O   UNL     1      25.378  41.576  46.581  0.00  0.00    +0.000 OA
ATOM     20  H   UNL     1      23.570  39.803  48.454  0.00  0.00    +0.000 HD
BRANCH  18  21
ATOM     21  C   UNL     1      24.753  39.261  46.326  0.00  0.00    +0.000 C 
BRANCH  21  22
ATOM     22  C   UNL     1      23.386  38.930  45.725  0.00  0.00    +0.000 C 
BRANCH  22  23
ATOM     23  C   UNL     1      23.243  39.211  44.219  0.00  0.00    +0.000 C 
ATOM     24  C   UNL     1      23.355  40.723  43.953  0.00  0.00    +0.000 C 
ATOM     25  C   UNL     1      21.943  38.683  43.600  0.00  0.00    +0.000 C 
ATOM     26  C   UNL     1      22.150  41.500  44.483  0.00  0.00    +0.000 C 
ATOM     27  C   UNL     1      20.702  39.435  44.074  0.00  0.00    +0.000 C 
ATOM     28  C   UNL     1      20.834  40.951  43.938  0.00  0.00    +0.000 C 
ENDBRANCH  22  23
ENDBRANCH  21  22
ENDBRANCH  18  21
ENDBRANCH   2  17
BRANCH   2  29
ATOM     29  C   UNL     1      24.626  42.348  49.796  0.00  0.00    +0.000 C 
ATOM     30  O   UNL     1      25.780  42.629  49.519  0.00  0.00    +0.000 OA
ATOM     31  OXT UNL     1      24.108  42.491  51.041  0.00  0.00    +0.000 OA
ENDBRANCH   2  29
TORSDOF 8
ENDMDL
MODEL 4
REMARK VINA RESULT:      -6.9      3.028      6.764
REMARK  Name = 323399
REMARK  8 active torsions:
REMARK  status: ('A' for Active; 'I' for Inactive)
REMARK    1  A    between atoms: C_3  and  O_5
REMARK    2  A    between atoms: O_5  and  C_8
REMARK    3  A    between atoms: C_14  and  C_15
REMARK    4  A    between atoms: CA_16  and  N_17
REMARK    5  A    between atoms: CA_16  and  C_18
REMARK    6  A    between atoms: C_19  and  C_23
REMARK    7  A    between atoms: C_23  and  C_24
REMARK    8  A    between atoms: C_24  and  C_25
REMARK                            x       y       z     vdW  Elec       q    Type
REMARK                         _______ _______ _______ _____ _____    ______ ____
ROOT
ATOM      1  C   UNL     1      24.783  40.725  46.093  0.00  0.00    +0.000 C 
ATOM      2  CA  UNL     1      24.752  41.638  47.081  0.00  0.00    +0.000 C 
ENDROOT
BRANCH   1   8
ATOM      3  C   UNL     1      21.423  39.457  43.817  0.00  0.00    +0.000 A 
ATOM      4  C   UNL     1      22.408  38.525  44.148  0.00  0.00    +0.000 A 
ATOM      5  C   UNL     1      21.647  40.817  44.042  0.00  0.00    +0.000 A 
ATOM      6  C   UNL     1      23.556  38.940  44.831  0.00  0.00    +0.000 A 
ATOM      7  C   UNL     1      22.758  41.220  44.773  0.00  0.00    +0.000 A 
ATOM      8  C   UNL     1      23.713  40.287  45.188  0.00  0.00    +0.000 A 
BRANCH   3   9
ATOM      9  O   UNL     1      20.224  38.989  43.317  0.00  0.00    +0.000 OA
BRANCH   9  12
ATOM     10 BR   UNL     1      17.630  37.709  44.418  0.00  0.00    +0.000 Br
ATOM     11  C   UNL     1      17.901  39.450  43.715  0.00  0.00    +0.000 A 
ATOM     12  C   UNL     1      19.161  39.882  43.288  0.00  0.00    +0.000 A 
ATOM     13  C   UNL     1      16.796  40.305  43.625  0.00  0.00    +0.000 A 
ATOM     14  C   UNL     1      19.309  41.209  42.850  0.00  0.00    +0.000 A 
ATOM     15  C   UNL     1      16.945  41.598  43.117  0.00  0.00    +0.000 A 
ATOM     16  C   UNL     1      18.203  42.052  42.737  0.00  0.00    +0.000 A 
ENDBRANCH   9  12
ENDBRANCH   3   9
ENDBRANCH   1   8
BRANCH   2  17
ATOM     17  N   UNL     1      23.650  42.368  47.500  0.00  0.00    +0.000 N 
ATOM     18  C   UNL     1      22.471  41.819  47.965  0.00  0.00    +0.000 C 
ATOM     19  O   UNL     1      22.323  40.637  48.256  0.00  0.00    +0.000 OA
ATOM     20  H   UNL     1      23.713  43.350  47.464  0.00  0.00    +0.000 HD
BRANCH  18  21
ATOM     21  C   UNL     1      21.380  42.855  48.195  0.00  0.00    +0.000 C 
BRANCH  21  22
ATOM     22  C   UNL     1      20.006  42.190  48.105  0.00  0.00    +0.000 C 
BRANCH  22  23
ATOM     23  C   UNL     1      19.594  41.718  46.699  0.00  0.00    +0.000 C 
ATOM     24  C   UNL     1      18.601  42.718  46.079  0.00  0.00    +0.000 C 
ATOM     25  C   UNL     1      18.986  40.310  46.661  0.00  0.00    +0.000 C 
ATOM     26  C   UNL     1      17.240  42.698  46.775  0.00  0.00    +0.000 C 
ATOM     27  C   UNL     1      17.612  40.230  47.322  0.00  0.00    +0.000 C 
ATOM     28  C   UNL     1      16.641  41.295  46.814  0.00  0.00    +0.000 C 
ENDBRANCH  22  23
ENDBRANCH  21  22
ENDBRANCH  18  21
ENDBRANCH   2  17
BRANCH   2  29
ATOM     29  C   UNL     1      26.073  41.910  47.746  0.00  0.00    +0.000 C 
ATOM     30  O   UNL     1      26.722  41.103  48.389  0.00  0.00    +0.000 OA
ATOM     31  OXT UNL     1      26.470  43.192  47.551  0.00  0.00    +0.000 OA
ENDBRANCH   2  29
TORSDOF 8
ENDMDL
MODEL 5
REMARK VINA RESULT:      -6.9      2.649      7.653
REMARK  Name = 323399
REMARK  8 active torsions:
REMARK  status: ('A' for Active; 'I' for Inactive)
REMARK    1  A    between atoms: C_3  and  O_5
REMARK    2  A    between atoms: O_5  and  C_8
REMARK    3  A    between atoms: C_14  and  C_15
REMARK    4  A    between atoms: CA_16  and  N_17
REMARK    5  A    between atoms: CA_16  and  C_18
REMARK    6  A    between atoms: C_19  and  C_23
REMARK    7  A    between atoms: C_23  and  C_24
REMARK    8  A    between atoms: C_24  and  C_25
REMARK                            x       y       z     vdW  Elec       q    Type
REMARK                         _______ _______ _______ _____ _____    ______ ____
ROOT
ATOM      1  C   UNL     1      22.879  40.399  43.740  0.00  0.00    +0.000 C 
ATOM      2  CA  UNL     1      23.547  40.551  44.899  0.00  0.00    +0.000 C 
ENDROOT
BRANCH   1   8
ATOM      3  C   UNL     1      18.639  40.435  43.425  0.00  0.00    +0.000 A 
ATOM      4  C   UNL     1      19.300  39.211  43.535  0.00  0.00    +0.000 A 
ATOM      5  C   UNL     1      19.371  41.604  43.204  0.00  0.00    +0.000 A 
ATOM      6  C   UNL     1      20.698  39.176  43.564  0.00  0.00    +0.000 A 
ATOM      7  C   UNL     1      20.757  41.576  43.293  0.00  0.00    +0.000 A 
ATOM      8  C   UNL     1      21.433  40.368  43.490  0.00  0.00    +0.000 A 
BRANCH   3   9
ATOM      9  O   UNL     1      17.269  40.454  43.591  0.00  0.00    +0.000 OA
BRANCH   9  12
ATOM     10 BR   UNL     1      16.874  42.696  45.688  0.00  0.00    +0.000 Br
ATOM     11  C   UNL     1      16.571  40.831  45.857  0.00  0.00    +0.000 A 
ATOM     12  C   UNL     1      16.771  39.954  44.786  0.00  0.00    +0.000 A 
ATOM     13  C   UNL     1      16.141  40.342  47.097  0.00  0.00    +0.000 A 
ATOM     14  C   UNL     1      16.453  38.596  44.956  0.00  0.00    +0.000 A 
ATOM     15  C   UNL     1      15.901  38.977  47.271  0.00  0.00    +0.000 A 
ATOM     16  C   UNL     1      16.050  38.106  46.198  0.00  0.00    +0.000 A 
ENDBRANCH   9  12
ENDBRANCH   3   9
ENDBRANCH   1   8
BRANCH   2  17
ATOM     17  N   UNL     1      22.993  40.681  46.163  0.00  0.00    +0.000 N 
ATOM     18  C   UNL     1      22.394  41.827  46.647  0.00  0.00    +0.000 C 
ATOM     19  O   UNL     1      22.095  42.798  45.959  0.00  0.00    +0.000 OA
ATOM     20  H   UNL     1      23.030  39.898  46.759  0.00  0.00    +0.000 HD
BRANCH  18  21
ATOM     21  C   UNL     1      22.028  41.732  48.121  0.00  0.00    +0.000 C 
BRANCH  21  22
ATOM     22  C   UNL     1      22.902  42.687  48.935  0.00  0.00    +0.000 C 
BRANCH  22  23
ATOM     23  C   UNL     1      23.851  42.013  49.942  0.00  0.00    +0.000 C 
ATOM     24  C   UNL     1      24.924  43.015  50.406  0.00  0.00    +0.000 C 
ATOM     25  C   UNL     1      24.538  40.747  49.411  0.00  0.00    +0.000 C 
ATOM     26  C   UNL     1      25.917  43.364  49.298  0.00  0.00    +0.000 C 
ATOM     27  C   UNL     1      25.560  41.034  48.314  0.00  0.00    +0.000 C 
ATOM     28  C   UNL     1      26.564  42.118  48.701  0.00  0.00    +0.000 C 
ENDBRANCH  22  23
ENDBRANCH  21  22
ENDBRANCH  18  21
ENDBRANCH   2  17
BRANCH   2  29
ATOM     29  C   UNL     1      25.043  40.635  44.771  0.00  0.00    +0.000 C 
ATOM     30  O   UNL     1      25.647  41.237  43.900  0.00  0.00    +0.000 OA
ATOM     31  OXT UNL     1      25.664  39.944  45.759  0.00  0.00    +0.000 OA
ENDBRANCH   2  29
TORSDOF 8
ENDMDL
MODEL 6
REMARK VINA RESULT:      -6.8      3.003      6.881
REMARK  Name = 323399
REMARK  8 active torsions:
REMARK  status: ('A' for Active; 'I' for Inactive)
REMARK    1  A    between atoms: C_3  and  O_5
REMARK    2  A    between atoms: O_5  and  C_8
REMARK    3  A    between atoms: C_14  and  C_15
REMARK    4  A    between atoms: CA_16  and  N_17
REMARK    5  A    between atoms: CA_16  and  C_18
REMARK    6  A    between atoms: C_19  and  C_23
REMARK    7  A    between atoms: C_23  and  C_24
REMARK    8  A    between atoms: C_24  and  C_25
REMARK                            x       y       z     vdW  Elec       q    Type
REMARK                         _______ _______ _______ _____ _____    ______ ____
ROOT
ATOM      1  C   UNL     1      24.178  40.728  45.632  0.00  0.00    +0.000 C 
ATOM      2  CA  UNL     1      24.232  41.402  46.796  0.00  0.00    +0.000 C 
ENDROOT
BRANCH   1   8
ATOM      3  C   UNL     1      20.605  39.863  43.494  0.00  0.00    +0.000 A 
ATOM      4  C   UNL     1      21.574  38.867  43.627  0.00  0.00    +0.000 A 
ATOM      5  C   UNL     1      20.902  41.176  43.866  0.00  0.00    +0.000 A 
ATOM      6  C   UNL     1      22.786  39.156  44.262  0.00  0.00    +0.000 A 
ATOM      7  C   UNL     1      22.081  41.449  44.550  0.00  0.00    +0.000 A 
ATOM      8  C   UNL     1      23.025  40.442  44.769  0.00  0.00    +0.000 A 
BRANCH   3   9
ATOM      9  O   UNL     1      19.354  39.500  43.038  0.00  0.00    +0.000 OA
BRANCH   9  12
ATOM     10 BR   UNL     1      16.757  41.012  42.299  0.00  0.00    +0.000 Br
ATOM     11  C   UNL     1      17.135  39.961  43.831  0.00  0.00    +0.000 A 
ATOM     12  C   UNL     1      18.365  39.313  43.993  0.00  0.00    +0.000 A 
ATOM     13  C   UNL     1      16.146  39.850  44.817  0.00  0.00    +0.000 A 
ATOM     14  C   UNL     1      18.552  38.487  45.115  0.00  0.00    +0.000 A 
ATOM     15  C   UNL     1      16.376  39.086  45.963  0.00  0.00    +0.000 A 
ATOM     16  C   UNL     1      17.576  38.398  46.107  0.00  0.00    +0.000 A 
ENDBRANCH   9  12
ENDBRANCH   3   9
ENDBRANCH   1   8
BRANCH   2  17
ATOM     17  N   UNL     1      23.164  41.965  47.479  0.00  0.00    +0.000 N 
ATOM     18  C   UNL     1      21.998  41.299  47.805  0.00  0.00    +0.000 C 
ATOM     19  O   UNL     1      21.843  40.086  47.715  0.00  0.00    +0.000 OA
ATOM     20  H   UNL     1      23.243  42.907  47.751  0.00  0.00    +0.000 HD
BRANCH  18  21
ATOM     21  C   UNL     1      20.938  42.212  48.404  0.00  0.00    +0.000 C 
BRANCH  21  22
ATOM     22  C   UNL     1      19.702  42.230  47.505  0.00  0.00    +0.000 C 
BRANCH  22  23
ATOM     23  C   UNL     1      19.206  43.628  47.095  0.00  0.00    +0.000 C 
ATOM     24  C   UNL     1      17.777  43.855  47.620  0.00  0.00    +0.000 C 
ATOM     25  C   UNL     1      19.238  43.890  45.584  0.00  0.00    +0.000 C 
ATOM     26  C   UNL     1      16.746  42.986  46.900  0.00  0.00    +0.000 C 
ATOM     27  C   UNL     1      18.212  43.066  44.809  0.00  0.00    +0.000 C 
ATOM     28  C   UNL     1      16.802  43.173  45.386  0.00  0.00    +0.000 C 
ENDBRANCH  22  23
ENDBRANCH  21  22
ENDBRANCH  18  21
ENDBRANCH   2  17
BRANCH   2  29
ATOM     29  C   UNL     1      25.611  41.593  47.364  0.00  0.00    +0.000 C 
ATOM     30  O   UNL     1      25.940  42.466  48.148  0.00  0.00    +0.000 OA
ATOM     31  OXT UNL     1      26.475  40.661  46.889  0.00  0.00    +0.000 OA
ENDBRANCH   2  29
TORSDOF 8
ENDMDL
MODEL 7
REMARK VINA RESULT:      -6.4      1.210      1.814
REMARK  Name = 323399
REMARK  8 active torsions:
REMARK  status: ('A' for Active; 'I' for Inactive)
REMARK    1  A    between atoms: C_3  and  O_5
REMARK    2  A    between atoms: O_5  and  C_8
REMARK    3  A    between atoms: C_14  and  C_15
REMARK    4  A    between atoms: CA_16  and  N_17
REMARK    5  A    between atoms: CA_16  and  C_18
REMARK    6  A    between atoms: C_19  and  C_23
REMARK    7  A    between atoms: C_23  and  C_24
REMARK    8  A    between atoms: C_24  and  C_25
REMARK                            x       y       z     vdW  Elec       q    Type
REMARK                         _______ _______ _______ _____ _____    ______ ____
ROOT
ATOM      1  C   UNL     1      20.126  42.273  43.634  0.00  0.00    +0.000 C 
ATOM      2  CA  UNL     1      18.789  42.111  43.631  0.00  0.00    +0.000 C 
ENDROOT
BRANCH   1   8
ATOM      3  C   UNL     1      22.641  41.211  46.894  0.00  0.00    +0.000 A 
ATOM      4  C   UNL     1      22.127  42.507  46.829  0.00  0.00    +0.000 A 
ATOM      5  C   UNL     1      22.507  40.353  45.800  0.00  0.00    +0.000 A 
ATOM      6  C   UNL     1      21.359  42.896  45.725  0.00  0.00    +0.000 A 
ATOM      7  C   UNL     1      21.696  40.719  44.733  0.00  0.00    +0.000 A 
ATOM      8  C   UNL     1      21.102  41.983  44.692  0.00  0.00    +0.000 A 
BRANCH   3   9
ATOM      9  O   UNL     1      23.227  40.800  48.074  0.00  0.00    +0.000 OA
BRANCH   9  12
ATOM     10 BR   UNL     1      23.481  42.852  50.377  0.00  0.00    +0.000 Br
ATOM     11  C   UNL     1      24.836  42.124  49.267  0.00  0.00    +0.000 A 
ATOM     12  C   UNL     1      24.548  41.170  48.285  0.00  0.00    +0.000 A 
ATOM     13  C   UNL     1      26.150  42.571  49.450  0.00  0.00    +0.000 A 
ATOM     14  C   UNL     1      25.609  40.614  47.550  0.00  0.00    +0.000 A 
ATOM     15  C   UNL     1      27.184  42.063  48.659  0.00  0.00    +0.000 A 
ATOM     16  C   UNL     1      26.913  41.079  47.715  0.00  0.00    +0.000 A 
ENDBRANCH   9  12
ENDBRANCH   3   9
ENDBRANCH   1   8
BRANCH   2  17
ATOM     17  N   UNL     1      18.008  41.651  44.681  0.00  0.00    +0.000 N 
ATOM     18  C   UNL     1      17.697  42.381  45.811  0.00  0.00    +0.000 C 
ATOM     19  O   UNL     1      17.898  43.585  45.937  0.00  0.00    +0.000 OA
ATOM     20  H   UNL     1      17.649  40.737  44.614  0.00  0.00    +0.000 HD
BRANCH  18  21
ATOM     21  C   UNL     1      16.964  41.565  46.866  0.00  0.00    +0.000 C 
BRANCH  21  22
ATOM     22  C   UNL     1      17.198  40.074  46.621  0.00  0.00    +0.000 C 
BRANCH  22  23
ATOM     23  C   UNL     1      16.250  39.418  45.602  0.00  0.00    +0.000 C 
ATOM     24  C   UNL     1      15.821  38.026  46.102  0.00  0.00    +0.000 C 
ATOM     25  C   UNL     1      16.834  39.290  44.189  0.00  0.00    +0.000 C 
ATOM     26  C   UNL     1      16.971  37.018  46.082  0.00  0.00    +0.000 C 
ATOM     27  C   UNL     1      17.974  38.279  44.099  0.00  0.00    +0.000 C 
ATOM     28  C   UNL     1      17.619  36.922  44.703  0.00  0.00    +0.000 C 
ENDBRANCH  22  23
ENDBRANCH  21  22
ENDBRANCH  18  21
ENDBRANCH   2  17
BRANCH   2  29
ATOM     29  C   UNL     1      18.107  42.421  42.327  0.00  0.00    +0.000 C 
ATOM     30  O   UNL     1      17.253  41.733  41.794  0.00  0.00    +0.000 OA
ATOM     31  OXT UNL     1      18.565  43.579  41.792  0.00  0.00    +0.000 OA
ENDBRANCH   2  29
TORSDOF 8
ENDMDL
MODEL 8
REMARK VINA RESULT:      -6.3      2.174      3.538
REMARK  Name = 323399
REMARK  8 active torsions:
REMARK  status: ('A' for Active; 'I' for Inactive)
REMARK    1  A    between atoms: C_3  and  O_5
REMARK    2  A    between atoms: O_5  and  C_8
REMARK    3  A    between atoms: C_14  and  C_15
REMARK    4  A    between atoms: CA_16  and  N_17
REMARK    5  A    between atoms: CA_16  and  C_18
REMARK    6  A    between atoms: C_19  and  C_23
REMARK    7  A    between atoms: C_23  and  C_24
REMARK    8  A    between atoms: C_24  and  C_25
REMARK                            x       y       z     vdW  Elec       q    Type
REMARK                         _______ _______ _______ _____ _____    ______ ____
ROOT
ATOM      1  C   UNL     1      20.359  39.450  43.841  0.00  0.00    +0.000 C 
ATOM      2  CA  UNL     1      19.182  39.621  44.470  0.00  0.00    +0.000 C 
ENDROOT
BRANCH   1   8
ATOM      3  C   UNL     1      24.211  40.344  45.404  0.00  0.00    +0.000 A 
ATOM      4  C   UNL     1      23.205  41.308  45.489  0.00  0.00    +0.000 A 
ATOM      5  C   UNL     1      24.015  39.200  44.629  0.00  0.00    +0.000 A 
ATOM      6  C   UNL     1      21.954  41.060  44.913  0.00  0.00    +0.000 A 
ATOM      7  C   UNL     1      22.756  38.927  44.110  0.00  0.00    +0.000 A 
ATOM      8  C   UNL     1      21.711  39.843  44.260  0.00  0.00    +0.000 A 
BRANCH   3   9
ATOM      9  O   UNL     1      25.362  40.537  46.141  0.00  0.00    +0.000 OA
BRANCH   9  12
ATOM     10 BR   UNL     1      23.383  39.156  48.079  0.00  0.00    +0.000 Br
ATOM     11  C   UNL     1      24.352  40.771  48.306  0.00  0.00    +0.000 A 
ATOM     12  C   UNL     1      25.240  41.239  47.332  0.00  0.00    +0.000 A 
ATOM     13  C   UNL     1      24.152  41.501  49.485  0.00  0.00    +0.000 A 
ATOM     14  C   UNL     1      25.983  42.402  47.596  0.00  0.00    +0.000 A 
ATOM     15  C   UNL     1      24.843  42.695  49.700  0.00  0.00    +0.000 A 
ATOM     16  C   UNL     1      25.765  43.141  48.759  0.00  0.00    +0.000 A 
ENDBRANCH   9  12
ENDBRANCH   3   9
ENDBRANCH   1   8
BRANCH   2  17
ATOM     17  N   UNL     1      18.975  40.263  45.682  0.00  0.00    +0.000 N 
ATOM     18  C   UNL     1      17.996  39.925  46.596  0.00  0.00    +0.000 C 
ATOM     19  O   UNL     1      17.327  38.898  46.548  0.00  0.00    +0.000 OA
ATOM     20  H   UNL     1      19.570  41.014  45.906  0.00  0.00    +0.000 HD
BRANCH  18  21
ATOM     21  C   UNL     1      17.899  40.905  47.755  0.00  0.00    +0.000 C 
BRANCH  21  22
ATOM     22  C   UNL     1      19.026  41.935  47.659  0.00  0.00    +0.000 C 
BRANCH  22  23
ATOM     23  C   UNL     1      18.584  43.362  47.294  0.00  0.00    +0.000 C 
ATOM     24  C   UNL     1      17.055  43.412  47.121  0.00  0.00    +0.000 C 
ATOM     25  C   UNL     1      19.254  43.925  46.033  0.00  0.00    +0.000 C 
ATOM     26  C   UNL     1      16.583  42.660  45.876  0.00  0.00    +0.000 C 
ATOM     27  C   UNL     1      18.805  43.229  44.751  0.00  0.00    +0.000 C 
ATOM     28  C   UNL     1      17.285  43.152  44.614  0.00  0.00    +0.000 C 
ENDBRANCH  22  23
ENDBRANCH  21  22
ENDBRANCH  18  21
ENDBRANCH   2  17
BRANCH   2  29
ATOM     29  C   UNL     1      17.994  38.998  43.790  0.00  0.00    +0.000 C 
ATOM     30  O   UNL     1      17.088  39.608  43.248  0.00  0.00    +0.000 OA
ATOM     31  OXT UNL     1      18.041  37.645  43.853  0.00  0.00    +0.000 OA
ENDBRANCH   2  29
TORSDOF 8
ENDMDL
MODEL 9
REMARK VINA RESULT:      -6.3      1.885      3.129
REMARK  Name = 323399
REMARK  8 active torsions:
REMARK  status: ('A' for Active; 'I' for Inactive)
REMARK    1  A    between atoms: C_3  and  O_5
REMARK    2  A    between atoms: O_5  and  C_8
REMARK    3  A    between atoms: C_14  and  C_15
REMARK    4  A    between atoms: CA_16  and  N_17
REMARK    5  A    between atoms: CA_16  and  C_18
REMARK    6  A    between atoms: C_19  and  C_23
REMARK    7  A    between atoms: C_23  and  C_24
REMARK    8  A    between atoms: C_24  and  C_25
REMARK                            x       y       z     vdW  Elec       q    Type
REMARK                         _______ _______ _______ _____ _____    ______ ____
ROOT
ATOM      1  C   UNL     1      20.209  39.380  43.899  0.00  0.00    +0.000 C 
ATOM      2  CA  UNL     1      19.030  40.017  44.015  0.00  0.00    +0.000 C 
ENDROOT
BRANCH   1   8
ATOM      3  C   UNL     1      24.089  40.397  45.311  0.00  0.00    +0.000 A 
ATOM      4  C   UNL     1      23.029  41.271  45.555  0.00  0.00    +0.000 A 
ATOM      5  C   UNL     1      23.919  39.323  44.436  0.00  0.00    +0.000 A 
ATOM      6  C   UNL     1      21.761  40.989  45.033  0.00  0.00    +0.000 A 
ATOM      7  C   UNL     1      22.648  39.010  43.968  0.00  0.00    +0.000 A 
ATOM      8  C   UNL     1      21.557  39.828  44.274  0.00  0.00    +0.000 A 
BRANCH   3   9
ATOM      9  O   UNL     1      25.272  40.600  45.993  0.00  0.00    +0.000 OA
BRANCH   9  12
ATOM     10 BR   UNL     1      23.448  39.085  47.983  0.00  0.00    +0.000 Br
ATOM     11  C   UNL     1      24.374  40.724  48.217  0.00  0.00    +0.000 A 
ATOM     12  C   UNL     1      25.192  41.256  47.214  0.00  0.00    +0.000 A 
ATOM     13  C   UNL     1      24.216  41.404  49.430  0.00  0.00    +0.000 A 
ATOM     14  C   UNL     1      25.911  42.434  47.481  0.00  0.00    +0.000 A 
ATOM     15  C   UNL     1      24.879  42.614  49.652  0.00  0.00    +0.000 A 
ATOM     16  C   UNL     1      25.732  43.124  48.680  0.00  0.00    +0.000 A 
ENDBRANCH   9  12
ENDBRANCH   3   9
ENDBRANCH   1   8
BRANCH   2  17
ATOM     17  N   UNL     1      18.824  41.299  44.501  0.00  0.00    +0.000 N 
ATOM     18  C   UNL     1      18.715  42.431  43.716  0.00  0.00    +0.000 C 
ATOM     19  O   UNL     1      18.581  42.420  42.497  0.00  0.00    +0.000 OA
ATOM     20  H   UNL     1      18.751  41.411  45.476  0.00  0.00    +0.000 HD
BRANCH  18  21
ATOM     21  C   UNL     1      18.660  43.717  44.528  0.00  0.00    +0.000 C 
BRANCH  21  22
ATOM     22  C   UNL     1      19.403  43.525  45.851  0.00  0.00    +0.000 C 
BRANCH  22  23
ATOM     23  C   UNL     1      18.521  43.562  47.112  0.00  0.00    +0.000 C 
ATOM     24  C   UNL     1      18.974  42.474  48.103  0.00  0.00    +0.000 C 
ATOM     25  C   UNL     1      17.020  43.401  46.836  0.00  0.00    +0.000 C 
ATOM     26  C   UNL     1      18.665  41.063  47.603  0.00  0.00    +0.000 C 
ATOM     27  C   UNL     1      16.644  42.002  46.354  0.00  0.00    +0.000 C 
ATOM     28  C   UNL     1      17.189  40.894  47.253  0.00  0.00    +0.000 C 
ENDBRANCH  22  23
ENDBRANCH  21  22
ENDBRANCH  18  21
ENDBRANCH   2  17
BRANCH   2  29
ATOM     29  C   UNL     1      17.823  39.212  43.617  0.00  0.00    +0.000 C 
ATOM     30  O   UNL     1      16.800  39.662  43.130  0.00  0.00    +0.000 OA
ATOM     31  OXT UNL     1      18.002  37.892  43.873  0.00  0.00    +0.000 OA
ENDBRANCH   2  29
TORSDOF 8
ENDMDL
