MODEL 1
REMARK VINA RESULT:      -8.0      0.000      0.000
REMARK  Name = 323668
REMARK  7 active torsions:
REMARK  status: ('A' for Active; 'I' for Inactive)
REMARK    1  A    between atoms: C_3  and  O_5
REMARK    2  A    between atoms: O_5  and  C_8
REMARK    3  A    between atoms: C_14  and  C_15
REMARK    4  A    between atoms: C_16  and  N_17
REMARK    5  A    between atoms: C_16  and  C_18
REMARK    6  A    between atoms: C_19  and  C_23
REMARK    7  A    between atoms: N_21  and  N_24
REMARK                            x       y       z     vdW  Elec       q    Type
REMARK                         _______ _______ _______ _____ _____    ______ ____
ROOT
ATOM      1  C   UNL     1      20.054  42.280  43.482  0.00  0.00    +0.000 C 
ATOM      2  C   UNL     1      18.948  41.591  43.145  0.00  0.00    +0.000 C 
ENDROOT
BRANCH   1   8
ATOM      3  C   UNL     1      22.388  41.237  46.882  0.00  0.00    +0.000 A 
ATOM      4  C   UNL     1      21.670  42.432  46.888  0.00  0.00    +0.000 A 
ATOM      5  C   UNL     1      22.542  40.525  45.689  0.00  0.00    +0.000 A 
ATOM      6  C   UNL     1      20.977  42.835  45.740  0.00  0.00    +0.000 A 
ATOM      7  C   UNL     1      21.833  40.919  44.547  0.00  0.00    +0.000 A 
ATOM      8  C   UNL     1      21.007  42.050  44.581  0.00  0.00    +0.000 A 
BRANCH   3   9
ATOM      9  O   UNL     1      22.904  40.789  48.083  0.00  0.00    +0.000 OA
BRANCH   9  12
ATOM     10 BR   UNL     1      25.669  40.560  46.722  0.00  0.00    +0.000 Br
ATOM     11  C   UNL     1      25.166  41.566  48.249  0.00  0.00    +0.000 A 
ATOM     12  C   UNL     1      23.847  41.585  48.716  0.00  0.00    +0.000 A 
ATOM     13  C   UNL     1      26.159  42.304  48.906  0.00  0.00    +0.000 A 
ATOM     14  C   UNL     1      23.522  42.429  49.792  0.00  0.00    +0.000 A 
ATOM     15  C   UNL     1      25.836  43.078  50.021  0.00  0.00    +0.000 A 
ATOM     16  C   UNL     1      24.515  43.151  50.455  0.00  0.00    +0.000 A 
ENDBRANCH   9  12
ENDBRANCH   3   9
ENDBRANCH   1   8
BRANCH   2  17
ATOM     17  N   UNL     1      18.542  40.391  43.706  0.00  0.00    +0.000 N 
ATOM     18  C   UNL     1      17.407  40.305  44.493  0.00  0.00    +0.000 C 
ATOM     19  O   UNL     1      16.734  41.270  44.839  0.00  0.00    +0.000 OA
ATOM     20  H   UNL     1      19.075  39.581  43.541  0.00  0.00    +0.000 HD
BRANCH  18  21
ATOM     21  C   UNL     1      17.078  38.968  45.049  0.00  0.00    +0.000 A 
ATOM     22  C   UNL     1      17.513  37.842  44.335  0.00  0.00    +0.000 A 
ATOM     23  C   UNL     1      16.434  38.802  46.283  0.00  0.00    +0.000 A 
ATOM     24  C   UNL     1      17.332  36.561  44.855  0.00  0.00    +0.000 A 
ATOM     25  C   UNL     1      16.264  37.515  46.803  0.00  0.00    +0.000 A 
ATOM     26  C   UNL     1      16.722  36.401  46.094  0.00  0.00    +0.000 A 
ENDBRANCH  18  21
ENDBRANCH   2  17
BRANCH   2  27
ATOM     27  C   UNL     1      18.074  42.219  42.082  0.00  0.00    +0.000 C 
ATOM     28  O   UNL     1      18.219  43.366  41.675  0.00  0.00    +0.000 OA
ATOM     29  N   UNL     1      17.107  41.347  41.583  0.00  0.00    +0.000 N 
ATOM     30  H   UNL     1      16.967  40.466  41.998  0.00  0.00    +0.000 HD
BRANCH  29  31
ATOM     31  N   UNL     1      16.328  41.748  40.467  0.00  0.00    +0.000 NA
ATOM     32  H   UNL     1      15.771  42.565  40.718  0.00  0.00    +0.000 HD
ATOM     33  H   UNL     1      15.709  40.985  40.193  0.00  0.00    +0.000 HD
ENDBRANCH  29  31
ENDBRANCH   2  27
TORSDOF 7
ENDMDL
MODEL 2
REMARK VINA RESULT:      -6.6      3.656      7.566
REMARK  Name = 323668
REMARK  7 active torsions:
REMARK  status: ('A' for Active; 'I' for Inactive)
REMARK    1  A    between atoms: C_3  and  O_5
REMARK    2  A    between atoms: O_5  and  C_8
REMARK    3  A    between atoms: C_14  and  C_15
REMARK    4  A    between atoms: C_16  and  N_17
REMARK    5  A    between atoms: C_16  and  C_18
REMARK    6  A    between atoms: C_19  and  C_23
REMARK    7  A    between atoms: N_21  and  N_24
REMARK                            x       y       z     vdW  Elec       q    Type
REMARK                         _______ _______ _______ _____ _____    ______ ____
ROOT
ATOM      1  C   UNL     1      24.078  40.755  45.915  0.00  0.00    +0.000 C 
ATOM      2  C   UNL     1      23.876  41.615  46.931  0.00  0.00    +0.000 C 
ENDROOT
BRANCH   1   8
ATOM      3  C   UNL     1      20.900  39.404  43.432  0.00  0.00    +0.000 A 
ATOM      4  C   UNL     1      21.631  38.475  44.170  0.00  0.00    +0.000 A 
ATOM      5  C   UNL     1      21.367  40.717  43.311  0.00  0.00    +0.000 A 
ATOM      6  C   UNL     1      22.741  38.894  44.916  0.00  0.00    +0.000 A 
ATOM      7  C   UNL     1      22.464  41.138  44.072  0.00  0.00    +0.000 A 
ATOM      8  C   UNL     1      23.128  40.239  44.916  0.00  0.00    +0.000 A 
BRANCH   3   9
ATOM      9  O   UNL     1      19.715  38.985  42.861  0.00  0.00    +0.000 OA
BRANCH   9  12
ATOM     10 BR   UNL     1      17.960  41.528  42.942  0.00  0.00    +0.000 Br
ATOM     11  C   UNL     1      17.742  39.893  43.879  0.00  0.00    +0.000 A 
ATOM     12  C   UNL     1      18.620  38.818  43.696  0.00  0.00    +0.000 A 
ATOM     13  C   UNL     1      16.665  39.782  44.767  0.00  0.00    +0.000 A 
ATOM     14  C   UNL     1      18.344  37.602  44.345  0.00  0.00    +0.000 A 
ATOM     15  C   UNL     1      16.448  38.593  45.463  0.00  0.00    +0.000 A 
ATOM     16  C   UNL     1      17.280  37.499  45.241  0.00  0.00    +0.000 A 
ENDBRANCH   9  12
ENDBRANCH   3   9
ENDBRANCH   1   8
BRANCH   2  17
ATOM     17  N   UNL     1      22.710  42.324  47.167  0.00  0.00    +0.000 N 
ATOM     18  C   UNL     1      21.508  41.683  47.416  0.00  0.00    +0.000 C 
ATOM     19  O   UNL     1      21.349  40.469  47.352  0.00  0.00    +0.000 OA
ATOM     20  H   UNL     1      22.736  43.307  47.157  0.00  0.00    +0.000 HD
BRANCH  18  21
ATOM     21  C   UNL     1      20.322  42.549  47.645  0.00  0.00    +0.000 A 
ATOM     22  C   UNL     1      19.690  43.095  46.517  0.00  0.00    +0.000 A 
ATOM     23  C   UNL     1      19.778  42.760  48.918  0.00  0.00    +0.000 A 
ATOM     24  C   UNL     1      18.511  43.826  46.653  0.00  0.00    +0.000 A 
ATOM     25  C   UNL     1      18.589  43.486  49.047  0.00  0.00    +0.000 A 
ATOM     26  C   UNL     1      17.955  44.007  47.915  0.00  0.00    +0.000 A 
ENDBRANCH  18  21
ENDBRANCH   2  17
BRANCH   2  27
ATOM     27  C   UNL     1      25.024  41.776  47.902  0.00  0.00    +0.000 C 
ATOM     28  O   UNL     1      26.141  41.307  47.717  0.00  0.00    +0.000 OA
ATOM     29  N   UNL     1      24.695  42.548  49.016  0.00  0.00    +0.000 N 
ATOM     30  H   UNL     1      23.764  42.831  49.171  0.00  0.00    +0.000 HD
BRANCH  29  31
ATOM     31  N   UNL     1      25.719  42.920  49.924  0.00  0.00    +0.000 NA
ATOM     32  H   UNL     1      25.330  43.525  50.647  0.00  0.00    +0.000 HD
ATOM     33  H   UNL     1      26.454  43.419  49.422  0.00  0.00    +0.000 HD
ENDBRANCH  29  31
ENDBRANCH   2  27
TORSDOF 7
ENDMDL
MODEL 3
REMARK VINA RESULT:      -6.6      2.285      3.527
REMARK  Name = 323668
REMARK  7 active torsions:
REMARK  status: ('A' for Active; 'I' for Inactive)
REMARK    1  A    between atoms: C_3  and  O_5
REMARK    2  A    between atoms: O_5  and  C_8
REMARK    3  A    between atoms: C_14  and  C_15
REMARK    4  A    between atoms: C_16  and  N_17
REMARK    5  A    between atoms: C_16  and  C_18
REMARK    6  A    between atoms: C_19  and  C_23
REMARK    7  A    between atoms: N_21  and  N_24
REMARK                            x       y       z     vdW  Elec       q    Type
REMARK                         _______ _______ _______ _____ _____    ______ ____
ROOT
ATOM      1  C   UNL     1      19.424  40.015  43.199  0.00  0.00    +0.000 C 
ATOM      2  C   UNL     1      18.308  40.705  43.498  0.00  0.00    +0.000 C 
ENDROOT
BRANCH   1   8
ATOM      3  C   UNL     1      23.143  40.401  45.229  0.00  0.00    +0.000 A 
ATOM      4  C   UNL     1      22.462  41.549  44.828  0.00  0.00    +0.000 A 
ATOM      5  C   UNL     1      22.740  39.151  44.748  0.00  0.00    +0.000 A 
ATOM      6  C   UNL     1      21.287  41.436  44.074  0.00  0.00    +0.000 A 
ATOM      7  C   UNL     1      21.555  39.039  44.010  0.00  0.00    +0.000 A 
ATOM      8  C   UNL     1      20.795  40.177  43.711  0.00  0.00    +0.000 A 
BRANCH   3   9
ATOM      9  O   UNL     1      24.188  40.549  46.118  0.00  0.00    +0.000 OA
BRANCH   9  12
ATOM     10 BR   UNL     1      26.828  41.325  47.526  0.00  0.00    +0.000 Br
ATOM     11  C   UNL     1      25.040  41.660  48.065  0.00  0.00    +0.000 A 
ATOM     12  C   UNL     1      23.950  41.264  47.282  0.00  0.00    +0.000 A 
ATOM     13  C   UNL     1      24.834  42.324  49.280  0.00  0.00    +0.000 A 
ATOM     14  C   UNL     1      22.656  41.632  47.691  0.00  0.00    +0.000 A 
ATOM     15  C   UNL     1      23.539  42.614  49.711  0.00  0.00    +0.000 A 
ATOM     16  C   UNL     1      22.451  42.280  48.909  0.00  0.00    +0.000 A 
ENDBRANCH   9  12
ENDBRANCH   3   9
ENDBRANCH   1   8
BRANCH   2  17
ATOM     17  N   UNL     1      18.192  41.659  44.495  0.00  0.00    +0.000 N 
ATOM     18  C   UNL     1      17.973  41.308  45.816  0.00  0.00    +0.000 C 
ATOM     19  O   UNL     1      17.766  40.160  46.197  0.00  0.00    +0.000 OA
ATOM     20  H   UNL     1      18.266  42.611  44.258  0.00  0.00    +0.000 HD
BRANCH  18  21
ATOM     21  C   UNL     1      17.855  42.418  46.795  0.00  0.00    +0.000 A 
ATOM     22  C   UNL     1      18.895  42.580  47.722  0.00  0.00    +0.000 A 
ATOM     23  C   UNL     1      16.801  43.341  46.764  0.00  0.00    +0.000 A 
ATOM     24  C   UNL     1      18.900  43.666  48.597  0.00  0.00    +0.000 A 
ATOM     25  C   UNL     1      16.816  44.433  47.638  0.00  0.00    +0.000 A 
ATOM     26  C   UNL     1      17.869  44.598  48.543  0.00  0.00    +0.000 A 
ENDBRANCH  18  21
ENDBRANCH   2  17
BRANCH   2  27
ATOM     27  C   UNL     1      17.100  40.417  42.635  0.00  0.00    +0.000 C 
ATOM     28  O   UNL     1      16.310  39.507  42.853  0.00  0.00    +0.000 OA
ATOM     29  N   UNL     1      16.952  41.321  41.582  0.00  0.00    +0.000 N 
ATOM     30  H   UNL     1      17.656  41.982  41.388  0.00  0.00    +0.000 HD
BRANCH  29  31
ATOM     31  N   UNL     1      15.775  41.272  40.793  0.00  0.00    +0.000 NA
ATOM     32  H   UNL     1      15.636  42.172  40.334  0.00  0.00    +0.000 HD
ATOM     33  H   UNL     1      14.973  41.067  41.390  0.00  0.00    +0.000 HD
ENDBRANCH  29  31
ENDBRANCH   2  27
TORSDOF 7
ENDMDL
MODEL 4
REMARK VINA RESULT:      -6.3      4.068      8.097
REMARK  Name = 323668
REMARK  7 active torsions:
REMARK  status: ('A' for Active; 'I' for Inactive)
REMARK    1  A    between atoms: C_3  and  O_5
REMARK    2  A    between atoms: O_5  and  C_8
REMARK    3  A    between atoms: C_14  and  C_15
REMARK    4  A    between atoms: C_16  and  N_17
REMARK    5  A    between atoms: C_16  and  C_18
REMARK    6  A    between atoms: C_19  and  C_23
REMARK    7  A    between atoms: N_21  and  N_24
REMARK                            x       y       z     vdW  Elec       q    Type
REMARK                         _______ _______ _______ _____ _____    ______ ____
ROOT
ATOM      1  C   UNL     1      23.145  38.847  44.764  0.00  0.00    +0.000 C 
ATOM      2  C   UNL     1      23.792  38.692  45.933  0.00  0.00    +0.000 C 
ENDROOT
BRANCH   1   8
ATOM      3  C   UNL     1      20.235  41.844  43.957  0.00  0.00    +0.000 A 
ATOM      4  C   UNL     1      20.179  40.635  43.266  0.00  0.00    +0.000 A 
ATOM      5  C   UNL     1      21.371  42.162  44.708  0.00  0.00    +0.000 A 
ATOM      6  C   UNL     1      21.186  39.678  43.450  0.00  0.00    +0.000 A 
ATOM      7  C   UNL     1      22.367  41.198  44.906  0.00  0.00    +0.000 A 
ATOM      8  C   UNL     1      22.255  39.932  44.316  0.00  0.00    +0.000 A 
BRANCH   3   9
ATOM      9  O   UNL     1      19.137  42.678  43.887  0.00  0.00    +0.000 OA
BRANCH   9  12
ATOM     10 BR   UNL     1      16.768  40.695  43.919  0.00  0.00    +0.000 Br
ATOM     11  C   UNL     1      17.227  42.031  45.184  0.00  0.00    +0.000 A 
ATOM     12  C   UNL     1      18.367  42.829  45.031  0.00  0.00    +0.000 A 
ATOM     13  C   UNL     1      16.388  42.203  46.293  0.00  0.00    +0.000 A 
ATOM     14  C   UNL     1      18.703  43.731  46.055  0.00  0.00    +0.000 A 
ATOM     15  C   UNL     1      16.694  43.158  47.263  0.00  0.00    +0.000 A 
ATOM     16  C   UNL     1      17.859  43.911  47.150  0.00  0.00    +0.000 A 
ENDBRANCH   9  12
ENDBRANCH   3   9
ENDBRANCH   1   8
BRANCH   2  17
ATOM     17  N   UNL     1      23.863  39.634  46.946  0.00  0.00    +0.000 N 
ATOM     18  C   UNL     1      24.866  40.588  46.983  0.00  0.00    +0.000 C 
ATOM     19  O   UNL     1      25.811  40.621  46.202  0.00  0.00    +0.000 OA
ATOM     20  H   UNL     1      23.184  39.624  47.659  0.00  0.00    +0.000 HD
BRANCH  18  21
ATOM     21  C   UNL     1      24.846  41.538  48.124  0.00  0.00    +0.000 A 
ATOM     22  C   UNL     1      23.614  41.771  48.753  0.00  0.00    +0.000 A 
ATOM     23  C   UNL     1      26.010  42.129  48.633  0.00  0.00    +0.000 A 
ATOM     24  C   UNL     1      23.544  42.568  49.896  0.00  0.00    +0.000 A 
ATOM     25  C   UNL     1      25.934  42.918  49.785  0.00  0.00    +0.000 A 
ATOM     26  C   UNL     1      24.706  43.126  50.418  0.00  0.00    +0.000 A 
ENDBRANCH  18  21
ENDBRANCH   2  17
BRANCH   2  27
ATOM     27  C   UNL     1      24.462  37.353  46.148  0.00  0.00    +0.000 C 
ATOM     28  O   UNL     1      24.035  36.495  46.912  0.00  0.00    +0.000 OA
ATOM     29  N   UNL     1      25.597  37.177  45.358  0.00  0.00    +0.000 N 
ATOM     30  H   UNL     1      25.956  37.923  44.825  0.00  0.00    +0.000 HD
BRANCH  29  31
ATOM     31  N   UNL     1      26.229  35.907  45.333  0.00  0.00    +0.000 NA
ATOM     32  H   UNL     1      26.967  35.881  46.036  0.00  0.00    +0.000 HD
ATOM     33  H   UNL     1      26.633  35.745  44.410  0.00  0.00    +0.000 HD
ENDBRANCH  29  31
ENDBRANCH   2  27
TORSDOF 7
ENDMDL
MODEL 5
REMARK VINA RESULT:      -5.7      3.545      8.348
REMARK  Name = 323668
REMARK  7 active torsions:
REMARK  status: ('A' for Active; 'I' for Inactive)
REMARK    1  A    between atoms: C_3  and  O_5
REMARK    2  A    between atoms: O_5  and  C_8
REMARK    3  A    between atoms: C_14  and  C_15
REMARK    4  A    between atoms: C_16  and  N_17
REMARK    5  A    between atoms: C_16  and  C_18
REMARK    6  A    between atoms: C_19  and  C_23
REMARK    7  A    between atoms: N_21  and  N_24
REMARK                            x       y       z     vdW  Elec       q    Type
REMARK                         _______ _______ _______ _____ _____    ______ ____
ROOT
ATOM      1  C   UNL     1      23.177  39.206  44.535  0.00  0.00    +0.000 C 
ATOM      2  C   UNL     1      23.981  39.151  45.613  0.00  0.00    +0.000 C 
ENDROOT
BRANCH   1   8
ATOM      3  C   UNL     1      19.312  40.971  44.324  0.00  0.00    +0.000 A 
ATOM      4  C   UNL     1      19.731  40.121  43.301  0.00  0.00    +0.000 A 
ATOM      5  C   UNL     1      20.238  41.434  45.264  0.00  0.00    +0.000 A 
ATOM      6  C   UNL     1      21.036  39.611  43.308  0.00  0.00    +0.000 A 
ATOM      7  C   UNL     1      21.535  40.908  45.281  0.00  0.00    +0.000 A 
ATOM      8  C   UNL     1      21.927  39.956  44.331  0.00  0.00    +0.000 A 
BRANCH   3   9
ATOM      9  O   UNL     1      17.973  41.303  44.377  0.00  0.00    +0.000 OA
BRANCH   9  12
ATOM     10 BR   UNL     1      16.918  42.939  46.778  0.00  0.00    +0.000 Br
ATOM     11  C   UNL     1      16.618  41.116  46.346  0.00  0.00    +0.000 A 
ATOM     12  C   UNL     1      17.150  40.537  45.188  0.00  0.00    +0.000 A 
ATOM     13  C   UNL     1      15.838  40.353  47.224  0.00  0.00    +0.000 A 
ATOM     14  C   UNL     1      16.806  39.210  44.877  0.00  0.00    +0.000 A 
ATOM     15  C   UNL     1      15.569  39.013  46.941  0.00  0.00    +0.000 A 
ATOM     16  C   UNL     1      16.042  38.447  45.760  0.00  0.00    +0.000 A 
ENDBRANCH   9  12
ENDBRANCH   3   9
ENDBRANCH   1   8
BRANCH   2  17
ATOM     17  N   UNL     1      23.861  39.933  46.749  0.00  0.00    +0.000 N 
ATOM     18  C   UNL     1      24.774  40.932  47.044  0.00  0.00    +0.000 C 
ATOM     19  O   UNL     1      25.796  41.141  46.400  0.00  0.00    +0.000 OA
ATOM     20  H   UNL     1      23.109  39.774  47.363  0.00  0.00    +0.000 HD
BRANCH  18  21
ATOM     21  C   UNL     1      24.548  41.697  48.297  0.00  0.00    +0.000 A 
ATOM     22  C   UNL     1      25.672  42.247  48.933  0.00  0.00    +0.000 A 
ATOM     23  C   UNL     1      23.268  41.954  48.802  0.00  0.00    +0.000 A 
ATOM     24  C   UNL     1      25.520  43.066  50.052  0.00  0.00    +0.000 A 
ATOM     25  C   UNL     1      23.121  42.785  49.918  0.00  0.00    +0.000 A 
ATOM     26  C   UNL     1      24.245  43.346  50.532  0.00  0.00    +0.000 A 
ENDBRANCH  18  21
ENDBRANCH   2  17
BRANCH   2  27
ATOM     27  C   UNL     1      25.082  38.115  45.566  0.00  0.00    +0.000 C 
ATOM     28  O   UNL     1      26.259  38.383  45.351  0.00  0.00    +0.000 OA
ATOM     29  N   UNL     1      24.629  36.823  45.832  0.00  0.00    +0.000 N 
ATOM     30  H   UNL     1      23.666  36.637  45.911  0.00  0.00    +0.000 HD
BRANCH  29  31
ATOM     31  N   UNL     1      25.577  35.779  45.986  0.00  0.00    +0.000 NA
ATOM     32  H   UNL     1      25.290  35.169  46.751  0.00  0.00    +0.000 HD
ATOM     33  H   UNL     1      26.492  36.178  46.194  0.00  0.00    +0.000 HD
ENDBRANCH  29  31
ENDBRANCH   2  27
TORSDOF 7
ENDMDL
