MODEL 1
REMARK VINA RESULT:      -6.6      0.000      0.000
REMARK  Name = 323273
REMARK  9 active torsions:
REMARK  status: ('A' for Active; 'I' for Inactive)
REMARK    1  A    between atoms: C_3  and  O_5
REMARK    2  A    between atoms: O_5  and  C_8
REMARK    3  A    between atoms: C_14  and  C_15
REMARK    4  A    between atoms: C_16  and  N_17
REMARK    5  A    between atoms: C_16  and  C_18
REMARK    6  A    between atoms: C_19  and  C_23
REMARK    7  A    between atoms: N_21  and  CA_24
REMARK    8  A    between atoms: CA_24  and  C_27
REMARK    9  A    between atoms: C_27  and  O_30
REMARK                            x       y       z     vdW  Elec       q    Type
REMARK                         _______ _______ _______ _____ _____    ______ ____
ROOT
ATOM      1  C   UNK A   1      20.160  42.316  43.483  0.00  0.00    +0.000 C 
ATOM      2  C   UNK A   1      18.914  41.844  43.289  0.00  0.00    +0.000 C 
ENDROOT
BRANCH   1   8
ATOM      3  C   UNK A   1      22.429  41.267  46.924  0.00  0.00    +0.000 A 
ATOM      4  C   UNK A   1      21.728  42.473  46.908  0.00  0.00    +0.000 A 
ATOM      5  C   UNK A   1      22.591  40.545  45.741  0.00  0.00    +0.000 A 
ATOM      6  C   UNK A   1      21.061  42.875  45.746  0.00  0.00    +0.000 A 
ATOM      7  C   UNK A   1      21.908  40.935  44.585  0.00  0.00    +0.000 A 
ATOM      8  C   UNK A   1      21.101  42.086  44.588  0.00  0.00    +0.000 A 
BRANCH   3   9
ATOM      9  O   UNK A   1      22.918  40.824  48.139  0.00  0.00    +0.000 OA
BRANCH   9  12
ATOM     10 BR   UNK A   1      25.688  40.588  46.776  0.00  0.00    +0.000 Br
ATOM     11  C   UNK A   1      25.190  41.581  48.313  0.00  0.00    +0.000 A 
ATOM     12  C   UNK A   1      23.868  41.607  48.777  0.00  0.00    +0.000 A 
ATOM     13  C   UNK A   1      26.188  42.302  48.981  0.00  0.00    +0.000 A 
ATOM     14  C   UNK A   1      23.550  42.446  49.858  0.00  0.00    +0.000 A 
ATOM     15  C   UNK A   1      25.870  43.070  50.103  0.00  0.00    +0.000 A 
ATOM     16  C   UNK A   1      24.548  43.152  50.532  0.00  0.00    +0.000 A 
ENDBRANCH   9  12
ENDBRANCH   3   9
ENDBRANCH   1   8
BRANCH   2  17
ATOM     17  N   UNK A   1      18.277  40.905  44.081  0.00  0.00    +0.000 N 
ATOM     18  C   UNK A   0      18.589  39.558  43.990  0.00  0.00    +0.000 C 
ATOM     19  O   UNK A   0      19.332  39.086  43.139  0.00  0.00    +0.000 OA
ATOM     20  H   UNK A   1      17.590  41.200  44.722  0.00  0.00    +0.000 HD
BRANCH  18  21
ATOM     21  C   UNK A   0      17.866  38.629  44.897  0.00  0.00    +0.000 A 
ATOM     22  C   UNK A   0      17.190  39.190  45.992  0.00  0.00    +0.000 A 
ATOM     23  C   UNK A   0      17.759  37.255  44.649  0.00  0.00    +0.000 A 
ATOM     24  C   UNK A   0      16.398  38.396  46.818  0.00  0.00    +0.000 A 
ATOM     25  C   UNK A   0      16.957  36.462  45.479  0.00  0.00    +0.000 A 
ATOM     26  C   UNK A   0      16.274  37.034  46.556  0.00  0.00    +0.000 A 
ENDBRANCH  18  21
ENDBRANCH   2  17
BRANCH   2  27
ATOM     27  C   UNK A   1      18.161  42.427  42.108  0.00  0.00    +0.000 C 
ATOM     28  O   UNK A   1      18.318  43.580  41.726  0.00  0.00    +0.000 OA
ATOM     29  N   GLY A   2      17.312  41.537  41.484  0.00  0.00    +0.000 N 
ATOM     30  H   GLY A   2      17.224  40.625  41.842  0.00  0.00    +0.000 HD
BRANCH  29  31
ATOM     31  CA  GLY A   2      16.541  41.916  40.305  0.00  0.00    +0.000 C 
BRANCH  31  32
ATOM     32  C   GLY A   2      15.150  41.283  40.270  0.00  0.00    +0.000 C 
BRANCH  32  33
ATOM     33  O   GLY A   2      14.823  40.890  38.938  0.00  0.00    +0.000 OA
ATOM     34  H   GLY A   2      14.171  40.173  38.963  0.00  0.00    +0.000 HD
ENDBRANCH  32  33
ENDBRANCH  31  32
ENDBRANCH  29  31
ENDBRANCH   2  27
TORSDOF 9
ENDMDL
MODEL 2
REMARK VINA RESULT:      -5.9      3.228      8.219
REMARK  Name = 323273
REMARK  9 active torsions:
REMARK  status: ('A' for Active; 'I' for Inactive)
REMARK    1  A    between atoms: C_3  and  O_5
REMARK    2  A    between atoms: O_5  and  C_8
REMARK    3  A    between atoms: C_14  and  C_15
REMARK    4  A    between atoms: C_16  and  N_17
REMARK    5  A    between atoms: C_16  and  C_18
REMARK    6  A    between atoms: C_19  and  C_23
REMARK    7  A    between atoms: N_21  and  CA_24
REMARK    8  A    between atoms: CA_24  and  C_27
REMARK    9  A    between atoms: C_27  and  O_30
REMARK                            x       y       z     vdW  Elec       q    Type
REMARK                         _______ _______ _______ _____ _____    ______ ____
ROOT
ATOM      1  C   UNK A   1      23.646  40.638  45.457  0.00  0.00    +0.000 C 
ATOM      2  C   UNK A   1      23.582  41.549  46.447  0.00  0.00    +0.000 C 
ENDROOT
BRANCH   1   8
ATOM      3  C   UNK A   1      20.193  39.281  43.377  0.00  0.00    +0.000 A 
ATOM      4  C   UNK A   1      21.015  38.354  44.016  0.00  0.00    +0.000 A 
ATOM      5  C   UNK A   1      20.633  40.595  43.206  0.00  0.00    +0.000 A 
ATOM      6  C   UNK A   1      22.206  38.776  44.617  0.00  0.00    +0.000 A 
ATOM      7  C   UNK A   1      21.813  41.022  43.823  0.00  0.00    +0.000 A 
ATOM      8  C   UNK A   1      22.592  40.123  44.572  0.00  0.00    +0.000 A 
BRANCH   3   9
ATOM      9  O   UNK A   1      18.946  38.854  42.958  0.00  0.00    +0.000 OA
BRANCH   9  12
ATOM     10 BR   UNK A   1      17.138  41.256  43.702  0.00  0.00    +0.000 Br
ATOM     11  C   UNK A   1      17.151  39.498  44.416  0.00  0.00    +0.000 A 
ATOM     12  C   UNK A   1      18.020  38.513  43.933  0.00  0.00    +0.000 A 
ATOM     13  C   UNK A   1      16.255  39.204  45.452  0.00  0.00    +0.000 A 
ATOM     14  C   UNK A   1      17.904  37.206  44.434  0.00  0.00    +0.000 A 
ATOM     15  C   UNK A   1      16.205  37.920  45.996  0.00  0.00    +0.000 A 
ATOM     16  C   UNK A   1      17.021  36.918  45.477  0.00  0.00    +0.000 A 
ENDBRANCH   9  12
ENDBRANCH   3   9
ENDBRANCH   1   8
BRANCH   2  17
ATOM     17  N   UNK A   1      22.471  42.307  46.773  0.00  0.00    +0.000 N 
ATOM     18  C   UNK A   0      21.296  41.710  47.200  0.00  0.00    +0.000 C 
ATOM     19  O   UNK A   0      21.105  40.500  47.200  0.00  0.00    +0.000 OA
ATOM     20  H   UNK A   1      22.517  43.288  46.700  0.00  0.00    +0.000 HD
BRANCH  18  21
ATOM     21  C   UNK A   0      20.164  42.608  47.547  0.00  0.00    +0.000 A 
ATOM     22  C   UNK A   0      19.494  43.242  46.489  0.00  0.00    +0.000 A 
ATOM     23  C   UNK A   0      19.693  42.766  48.857  0.00  0.00    +0.000 A 
ATOM     24  C   UNK A   0      18.355  44.007  46.728  0.00  0.00    +0.000 A 
ATOM     25  C   UNK A   0      18.543  43.530  49.091  0.00  0.00    +0.000 A 
ATOM     26  C   UNK A   0      17.873  44.142  48.027  0.00  0.00    +0.000 A 
ENDBRANCH  18  21
ENDBRANCH   2  17
BRANCH   2  27
ATOM     27  C   UNK A   1      24.843  41.718  47.273  0.00  0.00    +0.000 C 
ATOM     28  O   UNK A   1      25.952  41.392  46.866  0.00  0.00    +0.000 OA
ATOM     29  N   GLY A   2      24.637  42.300  48.506  0.00  0.00    +0.000 N 
ATOM     30  H   GLY A   2      23.721  42.535  48.779  0.00  0.00    +0.000 HD
BRANCH  29  31
ATOM     31  CA  GLY A   2      25.744  42.578  49.415  0.00  0.00    +0.000 C 
BRANCH  31  32
ATOM     32  C   GLY A   2      25.287  43.129  50.765  0.00  0.00    +0.000 C 
BRANCH  32  33
ATOM     33  O   GLY A   2      23.954  42.702  51.044  0.00  0.00    +0.000 OA
ATOM     34  H   GLY A   2      23.626  42.164  50.306  0.00  0.00    +0.000 HD
ENDBRANCH  32  33
ENDBRANCH  31  32
ENDBRANCH  29  31
ENDBRANCH   2  27
TORSDOF 9
ENDMDL
MODEL 3
REMARK VINA RESULT:      -5.3      2.656      4.404
REMARK  Name = 323273
REMARK  9 active torsions:
REMARK  status: ('A' for Active; 'I' for Inactive)
REMARK    1  A    between atoms: C_3  and  O_5
REMARK    2  A    between atoms: O_5  and  C_8
REMARK    3  A    between atoms: C_14  and  C_15
REMARK    4  A    between atoms: C_16  and  N_17
REMARK    5  A    between atoms: C_16  and  C_18
REMARK    6  A    between atoms: C_19  and  C_23
REMARK    7  A    between atoms: N_21  and  CA_24
REMARK    8  A    between atoms: CA_24  and  C_27
REMARK    9  A    between atoms: C_27  and  O_30
REMARK                            x       y       z     vdW  Elec       q    Type
REMARK                         _______ _______ _______ _____ _____    ______ ____
ROOT
ATOM      1  C   UNK A   1      20.617  39.114  44.301  0.00  0.00    +0.000 C 
ATOM      2  C   UNK A   1      19.372  39.586  44.504  0.00  0.00    +0.000 C 
ENDROOT
BRANCH   1   8
ATOM      3  C   UNK A   1      24.374  40.593  45.640  0.00  0.00    +0.000 A 
ATOM      4  C   UNK A   1      23.237  41.390  45.775  0.00  0.00    +0.000 A 
ATOM      5  C   UNK A   1      24.324  39.444  44.850  0.00  0.00    +0.000 A 
ATOM      6  C   UNK A   1      22.015  40.956  45.248  0.00  0.00    +0.000 A 
ATOM      7  C   UNK A   1      23.099  38.999  44.340  0.00  0.00    +0.000 A 
ATOM      8  C   UNK A   1      21.923  39.733  44.570  0.00  0.00    +0.000 A 
BRANCH   3   9
ATOM      9  O   UNK A   1      25.510  40.973  46.329  0.00  0.00    +0.000 OA
BRANCH   9  12
ATOM     10 BR   UNK A   1      23.656  39.334  48.191  0.00  0.00    +0.000 Br
ATOM     11  C   UNK A   1      24.496  41.005  48.505  0.00  0.00    +0.000 A 
ATOM     12  C   UNK A   1      25.343  41.594  47.558  0.00  0.00    +0.000 A 
ATOM     13  C   UNK A   1      24.248  41.645  49.726  0.00  0.00    +0.000 A 
ATOM     14  C   UNK A   1      26.013  42.780  47.898  0.00  0.00    +0.000 A 
ATOM     15  C   UNK A   1      24.860  42.865  50.019  0.00  0.00    +0.000 A 
ATOM     16  C   UNK A   1      25.754  43.425  49.109  0.00  0.00    +0.000 A 
ENDBRANCH   9  12
ENDBRANCH   3   9
ENDBRANCH   1   8
BRANCH   2  17
ATOM     17  N   UNK A   1      19.056  40.770  45.147  0.00  0.00    +0.000 N 
ATOM     18  C   UNK A   0      18.292  40.777  46.304  0.00  0.00    +0.000 C 
ATOM     19  O   UNK A   0      17.741  39.784  46.764  0.00  0.00    +0.000 OA
ATOM     20  H   UNK A   1      19.380  41.623  44.777  0.00  0.00    +0.000 HD
BRANCH  18  21
ATOM     21  C   UNK A   0      18.022  42.096  46.933  0.00  0.00    +0.000 A 
ATOM     22  C   UNK A   0      18.997  42.610  47.801  0.00  0.00    +0.000 A 
ATOM     23  C   UNK A   0      16.897  42.870  46.622  0.00  0.00    +0.000 A 
ATOM     24  C   UNK A   0      18.867  43.889  48.338  0.00  0.00    +0.000 A 
ATOM     25  C   UNK A   0      16.773  44.157  47.159  0.00  0.00    +0.000 A 
ATOM     26  C   UNK A   0      17.759  44.666  48.008  0.00  0.00    +0.000 A 
ENDBRANCH  18  21
ENDBRANCH   2  17
BRANCH   2  27
ATOM     27  C   UNK A   1      18.244  38.739  43.949  0.00  0.00    +0.000 C 
ATOM     28  O   UNK A   1      17.404  39.178  43.173  0.00  0.00    +0.000 OA
ATOM     29  N   GLY A   2      18.266  37.424  44.366  0.00  0.00    +0.000 N 
ATOM     30  H   GLY A   2      18.964  37.132  44.996  0.00  0.00    +0.000 HD
BRANCH  29  31
ATOM     31  CA  GLY A   2      17.281  36.457  43.897  0.00  0.00    +0.000 C 
BRANCH  31  32
ATOM     32  C   GLY A   2      16.521  35.775  45.034  0.00  0.00    +0.000 C 
BRANCH  32  33
ATOM     33  O   GLY A   2      17.415  35.460  46.102  0.00  0.00    +0.000 OA
ATOM     34  H   GLY A   2      17.699  34.536  46.023  0.00  0.00    +0.000 HD
ENDBRANCH  32  33
ENDBRANCH  31  32
ENDBRANCH  29  31
ENDBRANCH   2  27
TORSDOF 9
ENDMDL
MODEL 4
REMARK VINA RESULT:      -5.2      2.124      3.647
REMARK  Name = 323273
REMARK  9 active torsions:
REMARK  status: ('A' for Active; 'I' for Inactive)
REMARK    1  A    between atoms: C_3  and  O_5
REMARK    2  A    between atoms: O_5  and  C_8
REMARK    3  A    between atoms: C_14  and  C_15
REMARK    4  A    between atoms: C_16  and  N_17
REMARK    5  A    between atoms: C_16  and  C_18
REMARK    6  A    between atoms: C_19  and  C_23
REMARK    7  A    between atoms: N_21  and  CA_24
REMARK    8  A    between atoms: CA_24  and  C_27
REMARK    9  A    between atoms: C_27  and  O_30
REMARK                            x       y       z     vdW  Elec       q    Type
REMARK                         _______ _______ _______ _____ _____    ______ ____
ROOT
ATOM      1  C   UNK A   1      20.744  39.214  44.004  0.00  0.00    +0.000 C 
ATOM      2  C   UNK A   1      19.549  39.695  44.400  0.00  0.00    +0.000 C 
ENDROOT
BRANCH   1   8
ATOM      3  C   UNK A   1      24.361  40.167  46.028  0.00  0.00    +0.000 A 
ATOM      4  C   UNK A   1      23.778  41.114  45.186  0.00  0.00    +0.000 A 
ATOM      5  C   UNK A   1      23.907  38.847  46.005  0.00  0.00    +0.000 A 
ATOM      6  C   UNK A   1      22.644  40.777  44.438  0.00  0.00    +0.000 A 
ATOM      7  C   UNK A   1      22.762  38.515  45.274  0.00  0.00    +0.000 A 
ATOM      8  C   UNK A   1      22.094  39.490  44.513  0.00  0.00    +0.000 A 
BRANCH   3   9
ATOM      9  O   UNK A   1      25.362  40.595  46.879  0.00  0.00    +0.000 OA
BRANCH   9  12
ATOM     10 BR   UNK A   1      27.832  41.479  48.526  0.00  0.00    +0.000 Br
ATOM     11  C   UNK A   1      25.996  41.858  48.821  0.00  0.00    +0.000 A 
ATOM     12  C   UNK A   1      25.001  41.405  47.946  0.00  0.00    +0.000 A 
ATOM     13  C   UNK A   1      25.656  42.615  49.949  0.00  0.00    +0.000 A 
ATOM     14  C   UNK A   1      23.674  41.809  48.167  0.00  0.00    +0.000 A 
ATOM     15  C   UNK A   1      24.322  42.944  50.199  0.00  0.00    +0.000 A 
ATOM     16  C   UNK A   1      23.334  42.552  49.299  0.00  0.00    +0.000 A 
ENDBRANCH   9  12
ENDBRANCH   3   9
ENDBRANCH   1   8
BRANCH   2  17
ATOM     17  N   UNK A   1      19.333  40.505  45.500  0.00  0.00    +0.000 N 
ATOM     18  C   UNK A   0      19.293  41.885  45.379  0.00  0.00    +0.000 C 
ATOM     19  O   UNK A   0      19.567  42.488  44.348  0.00  0.00    +0.000 OA
ATOM     20  H   UNK A   1      19.205  40.094  46.386  0.00  0.00    +0.000 HD
BRANCH  18  21
ATOM     21  C   UNK A   0      19.035  42.669  46.614  0.00  0.00    +0.000 A 
ATOM     22  C   UNK A   0      18.026  43.643  46.563  0.00  0.00    +0.000 A 
ATOM     23  C   UNK A   0      19.684  42.410  47.828  0.00  0.00    +0.000 A 
ATOM     24  C   UNK A   0      17.651  44.337  47.711  0.00  0.00    +0.000 A 
ATOM     25  C   UNK A   0      19.299  43.105  48.981  0.00  0.00    +0.000 A 
ATOM     26  C   UNK A   0      18.281  44.061  48.922  0.00  0.00    +0.000 A 
ENDBRANCH  18  21
ENDBRANCH   2  17
BRANCH   2  27
ATOM     27  C   UNK A   1      18.364  39.319  43.531  0.00  0.00    +0.000 C 
ATOM     28  O   UNK A   1      18.056  38.157  43.296  0.00  0.00    +0.000 OA
ATOM     29  N   GLY A   2      17.645  40.398  43.059  0.00  0.00    +0.000 N 
ATOM     30  H   GLY A   2      17.946  41.308  43.279  0.00  0.00    +0.000 HD
BRANCH  29  31
ATOM     31  CA  GLY A   2      16.449  40.221  42.244  0.00  0.00    +0.000 C 
BRANCH  31  32
ATOM     32  C   GLY A   2      16.170  41.408  41.323  0.00  0.00    +0.000 C 
BRANCH  32  33
ATOM     33  O   GLY A   2      15.034  41.137  40.503  0.00  0.00    +0.000 OA
ATOM     34  H   GLY A   2      15.199  40.343  39.974  0.00  0.00    +0.000 HD
ENDBRANCH  32  33
ENDBRANCH  31  32
ENDBRANCH  29  31
ENDBRANCH   2  27
TORSDOF 9
ENDMDL
MODEL 5
REMARK VINA RESULT:      -3.9      3.422      8.225
REMARK  Name = 323273
REMARK  9 active torsions:
REMARK  status: ('A' for Active; 'I' for Inactive)
REMARK    1  A    between atoms: C_3  and  O_5
REMARK    2  A    between atoms: O_5  and  C_8
REMARK    3  A    between atoms: C_14  and  C_15
REMARK    4  A    between atoms: C_16  and  N_17
REMARK    5  A    between atoms: C_16  and  C_18
REMARK    6  A    between atoms: C_19  and  C_23
REMARK    7  A    between atoms: N_21  and  CA_24
REMARK    8  A    between atoms: CA_24  and  C_27
REMARK    9  A    between atoms: C_27  and  O_30
REMARK                            x       y       z     vdW  Elec       q    Type
REMARK                         _______ _______ _______ _____ _____    ______ ____
ROOT
ATOM      1  C   UNK A   1      23.487  40.431  44.909  0.00  0.00    +0.000 C 
ATOM      2  C   UNK A   1      23.627  41.347  45.888  0.00  0.00    +0.000 C 
ENDROOT
BRANCH   1   8
ATOM      3  C   UNK A   1      19.673  39.184  43.498  0.00  0.00    +0.000 A 
ATOM      4  C   UNK A   1      20.539  38.242  44.054  0.00  0.00    +0.000 A 
ATOM      5  C   UNK A   1      20.148  40.457  43.177  0.00  0.00    +0.000 A 
ATOM      6  C   UNK A   1      21.833  38.621  44.429  0.00  0.00    +0.000 A 
ATOM      7  C   UNK A   1      21.434  40.842  43.570  0.00  0.00    +0.000 A 
ATOM      8  C   UNK A   1      22.276  39.937  44.239  0.00  0.00    +0.000 A 
BRANCH   3   9
ATOM      9  O   UNK A   1      18.355  38.814  43.312  0.00  0.00    +0.000 OA
BRANCH   9  12
ATOM     10 BR   UNK A   1      17.286  36.050  44.214  0.00  0.00    +0.000 Br
ATOM     11  C   UNK A   1      16.884  37.773  44.900  0.00  0.00    +0.000 A 
ATOM     12  C   UNK A   1      17.493  38.928  44.393  0.00  0.00    +0.000 A 
ATOM     13  C   UNK A   1      15.953  37.863  45.942  0.00  0.00    +0.000 A 
ATOM     14  C   UNK A   1      17.228  40.158  45.017  0.00  0.00    +0.000 A 
ATOM     15  C   UNK A   1      15.640  39.104  46.500  0.00  0.00    +0.000 A 
ATOM     16  C   UNK A   1      16.289  40.249  46.046  0.00  0.00    +0.000 A 
ENDBRANCH   9  12
ENDBRANCH   3   9
ENDBRANCH   1   8
BRANCH   2  17
ATOM     17  N   UNK A   1      22.612  42.130  46.408  0.00  0.00    +0.000 N 
ATOM     18  C   UNK A   0      21.469  41.559  46.946  0.00  0.00    +0.000 C 
ATOM     19  O   UNK A   0      21.212  40.363  46.889  0.00  0.00    +0.000 OA
ATOM     20  H   UNK A   1      22.703  43.110  46.396  0.00  0.00    +0.000 HD
BRANCH  18  21
ATOM     21  C   UNK A   0      20.444  42.482  47.499  0.00  0.00    +0.000 A 
ATOM     22  C   UNK A   0      19.677  43.220  46.584  0.00  0.00    +0.000 A 
ATOM     23  C   UNK A   0      20.158  42.567  48.868  0.00  0.00    +0.000 A 
ATOM     24  C   UNK A   0      18.623  44.017  47.023  0.00  0.00    +0.000 A 
ATOM     25  C   UNK A   0      19.093  43.365  49.303  0.00  0.00    +0.000 A 
ATOM     26  C   UNK A   0      18.324  44.082  48.381  0.00  0.00    +0.000 A 
ENDBRANCH  18  21
ENDBRANCH   2  17
BRANCH   2  27
ATOM     27  C   UNK A   1      25.022  41.491  46.465  0.00  0.00    +0.000 C 
ATOM     28  O   UNK A   1      25.941  40.733  46.177  0.00  0.00    +0.000 OA
ATOM     29  N   GLY A   2      25.174  42.567  47.315  0.00  0.00    +0.000 N 
ATOM     30  H   GLY A   2      24.396  43.136  47.512  0.00  0.00    +0.000 HD
BRANCH  29  31
ATOM     31  CA  GLY A   2      26.460  42.881  47.926  0.00  0.00    +0.000 C 
BRANCH  31  32
ATOM     32  C   GLY A   2      26.786  41.993  49.127  0.00  0.00    +0.000 C 
BRANCH  32  33
ATOM     33  O   GLY A   2      27.879  41.130  48.816  0.00  0.00    +0.000 OA
ATOM     34  H   GLY A   2      28.618  41.655  48.472  0.00  0.00    +0.000 HD
ENDBRANCH  32  33
ENDBRANCH  31  32
ENDBRANCH  29  31
ENDBRANCH   2  27
TORSDOF 9
ENDMDL
MODEL 6
REMARK VINA RESULT:      -3.7      3.625      8.456
REMARK  Name = 323273
REMARK  9 active torsions:
REMARK  status: ('A' for Active; 'I' for Inactive)
REMARK    1  A    between atoms: C_3  and  O_5
REMARK    2  A    between atoms: O_5  and  C_8
REMARK    3  A    between atoms: C_14  and  C_15
REMARK    4  A    between atoms: C_16  and  N_17
REMARK    5  A    between atoms: C_16  and  C_18
REMARK    6  A    between atoms: C_19  and  C_23
REMARK    7  A    between atoms: N_21  and  CA_24
REMARK    8  A    between atoms: CA_24  and  C_27
REMARK    9  A    between atoms: C_27  and  O_30
REMARK                            x       y       z     vdW  Elec       q    Type
REMARK                         _______ _______ _______ _____ _____    ______ ____
ROOT
ATOM      1  C   UNK A   1      21.161  42.736  49.115  0.00  0.00    +0.000 C 
ATOM      2  C   UNK A   1      22.299  42.214  48.616  0.00  0.00    +0.000 C 
ENDROOT
BRANCH   1   8
ATOM      3  C   UNK A   1      17.450  42.477  47.053  0.00  0.00    +0.000 A 
ATOM      4  C   UNK A   1      17.984  43.731  47.347  0.00  0.00    +0.000 A 
ATOM      5  C   UNK A   1      17.993  41.337  47.649  0.00  0.00    +0.000 A 
ATOM      6  C   UNK A   1      19.152  43.830  48.112  0.00  0.00    +0.000 A 
ATOM      7  C   UNK A   1      19.171  41.433  48.396  0.00  0.00    +0.000 A 
ATOM      8  C   UNK A   1      19.786  42.680  48.601  0.00  0.00    +0.000 A 
BRANCH   3   9
ATOM      9  O   UNK A   1      16.407  42.418  46.149  0.00  0.00    +0.000 OA
BRANCH   9  12
ATOM     10 BR   UNK A   1      16.092  39.338  46.076  0.00  0.00    +0.000 Br
ATOM     11  C   UNK A   1      16.620  40.521  44.691  0.00  0.00    +0.000 A 
ATOM     12  C   UNK A   1      16.673  41.908  44.887  0.00  0.00    +0.000 A 
ATOM     13  C   UNK A   1      16.956  39.969  43.449  0.00  0.00    +0.000 A 
ATOM     14  C   UNK A   1      16.971  42.732  43.790  0.00  0.00    +0.000 A 
ATOM     15  C   UNK A   1      17.327  40.797  42.388  0.00  0.00    +0.000 A 
ATOM     16  C   UNK A   1      17.320  42.180  42.556  0.00  0.00    +0.000 A 
ENDBRANCH   9  12
ENDBRANCH   3   9
ENDBRANCH   1   8
BRANCH   2  17
ATOM     17  N   UNK A   1      22.386  41.380  47.516  0.00  0.00    +0.000 N 
ATOM     18  C   UNK A   0      22.172  41.859  46.233  0.00  0.00    +0.000 C 
ATOM     19  O   UNK A   0      21.774  42.990  45.984  0.00  0.00    +0.000 OA
ATOM     20  H   UNK A   1      22.604  40.429  47.646  0.00  0.00    +0.000 HD
BRANCH  18  21
ATOM     21  C   UNK A   0      22.308  40.891  45.114  0.00  0.00    +0.000 A 
ATOM     22  C   UNK A   0      23.373  39.978  45.174  0.00  0.00    +0.000 A 
ATOM     23  C   UNK A   0      21.375  40.797  44.073  0.00  0.00    +0.000 A 
ATOM     24  C   UNK A   0      23.497  38.969  44.221  0.00  0.00    +0.000 A 
ATOM     25  C   UNK A   0      21.501  39.777  43.122  0.00  0.00    +0.000 A 
ATOM     26  C   UNK A   0      22.555  38.863  43.201  0.00  0.00    +0.000 A 
ENDBRANCH  18  21
ENDBRANCH   2  17
BRANCH   2  27
ATOM     27  C   UNK A   1      23.578  42.614  49.326  0.00  0.00    +0.000 C 
ATOM     28  O   UNK A   1      23.585  43.161  50.422  0.00  0.00    +0.000 OA
ATOM     29  N   GLY A   2      24.730  42.278  48.647  0.00  0.00    +0.000 N 
ATOM     30  H   GLY A   2      24.659  41.844  47.766  0.00  0.00    +0.000 HD
BRANCH  29  31
ATOM     31  CA  GLY A   2      26.051  42.548  49.203  0.00  0.00    +0.000 C 
BRANCH  31  32
ATOM     32  C   GLY A   2      27.182  41.908  48.398  0.00  0.00    +0.000 C 
BRANCH  32  33
ATOM     33  O   GLY A   2      27.946  41.038  49.233  0.00  0.00    +0.000 OA
ATOM     34  H   GLY A   2      28.719  41.513  49.574  0.00  0.00    +0.000 HD
ENDBRANCH  32  33
ENDBRANCH  31  32
ENDBRANCH  29  31
ENDBRANCH   2  27
TORSDOF 9
ENDMDL
