MODEL 1
REMARK VINA RESULT:      -7.3      0.000      0.000
REMARK  Name = 321038
REMARK  6 active torsions:
REMARK  status: ('A' for Active; 'I' for Inactive)
REMARK    1  A    between atoms: C_3  and  O_5
REMARK    2  A    between atoms: O_5  and  C_8
REMARK    3  A    between atoms: C_14  and  C_15
REMARK    4  A    between atoms: CA_16  and  N_17
REMARK    5  A    between atoms: CA_16  and  C_18
REMARK    6  A    between atoms: C_19  and  C_23
REMARK                            x       y       z     vdW  Elec       q    Type
REMARK                         _______ _______ _______ _____ _____    ______ ____
ROOT
ATOM      1  C   UNL     1      20.196  42.600  43.564  0.00  0.00    +0.000 C 
ATOM      2  CA  UNL     1      19.073  41.967  43.182  0.00  0.00    +0.000 C 
ENDROOT
BRANCH   1   8
ATOM      3  C   UNL     1      22.465  41.291  46.900  0.00  0.00    +0.000 A 
ATOM      4  C   UNL     1      21.977  42.600  46.877  0.00  0.00    +0.000 A 
ATOM      5  C   UNL     1      22.435  40.517  45.735  0.00  0.00    +0.000 A 
ATOM      6  C   UNL     1      21.317  43.075  45.738  0.00  0.00    +0.000 A 
ATOM      7  C   UNL     1      21.759  40.986  44.606  0.00  0.00    +0.000 A 
ATOM      8  C   UNL     1      21.153  42.247  44.621  0.00  0.00    +0.000 A 
BRANCH   3   9
ATOM      9  O   UNL     1      22.933  40.807  48.104  0.00  0.00    +0.000 OA
BRANCH   9  12
ATOM     10 BR   UNL     1      25.705  40.622  46.751  0.00  0.00    +0.000 Br
ATOM     11  C   UNL     1      25.198  41.563  48.319  0.00  0.00    +0.000 A 
ATOM     12  C   UNL     1      23.875  41.569  48.778  0.00  0.00    +0.000 A 
ATOM     13  C   UNL     1      26.191  42.263  49.016  0.00  0.00    +0.000 A 
ATOM     14  C   UNL     1      23.549  42.364  49.888  0.00  0.00    +0.000 A 
ATOM     15  C   UNL     1      25.866  42.988  50.163  0.00  0.00    +0.000 A 
ATOM     16  C   UNL     1      24.542  43.049  50.591  0.00  0.00    +0.000 A 
ENDBRANCH   9  12
ENDBRANCH   3   9
ENDBRANCH   1   8
BRANCH   2  17
ATOM     17  N   UNL     1      18.651  40.718  43.616  0.00  0.00    +0.000 N 
ATOM     18  C   UNL     1      17.783  40.589  44.689  0.00  0.00    +0.000 C 
ATOM     19  O   UNL     1      17.432  41.525  45.400  0.00  0.00    +0.000 OA
ATOM     20  H   UNL     1      18.973  39.912  43.154  0.00  0.00    +0.000 HD
BRANCH  18  21
ATOM     21  C   UNL     1      17.379  39.215  45.079  0.00  0.00    +0.000 A 
ATOM     22  C   UNL     1      17.647  38.181  44.166  0.00  0.00    +0.000 A 
ATOM     23  C   UNL     1      16.836  38.914  46.338  0.00  0.00    +0.000 A 
ATOM     24  C   UNL     1      17.393  36.863  44.521  0.00  0.00    +0.000 A 
ATOM     25  C   UNL     1      16.588  37.579  46.682  0.00  0.00    +0.000 A 
ATOM     26  F   UNL     1      17.666  35.886  43.647  0.00  0.00    +0.000 F 
ATOM     27  C   UNL     1      16.878  36.562  45.775  0.00  0.00    +0.000 A 
ATOM     28  F   UNL     1      16.671  35.286  46.127  0.00  0.00    +0.000 F 
ENDBRANCH  18  21
ENDBRANCH   2  17
BRANCH   2  29
ATOM     29  C   UNL     1      18.220  42.700  42.189  0.00  0.00    +0.000 C 
ATOM     30  O   UNL     1      18.371  43.861  41.850  0.00  0.00    +0.000 OA
ATOM     31  OXT UNL     1      17.234  41.906  41.711  0.00  0.00    +0.000 OA
ENDBRANCH   2  29
TORSDOF 6
ENDMDL
MODEL 2
REMARK VINA RESULT:      -7.0      4.283      8.146
REMARK  Name = 321038
REMARK  6 active torsions:
REMARK  status: ('A' for Active; 'I' for Inactive)
REMARK    1  A    between atoms: C_3  and  O_5
REMARK    2  A    between atoms: O_5  and  C_8
REMARK    3  A    between atoms: C_14  and  C_15
REMARK    4  A    between atoms: CA_16  and  N_17
REMARK    5  A    between atoms: CA_16  and  C_18
REMARK    6  A    between atoms: C_19  and  C_23
REMARK                            x       y       z     vdW  Elec       q    Type
REMARK                         _______ _______ _______ _____ _____    ______ ____
ROOT
ATOM      1  C   UNL     1      23.216  38.844  44.588  0.00  0.00    +0.000 C 
ATOM      2  CA  UNL     1      23.855  38.688  45.761  0.00  0.00    +0.000 C 
ENDROOT
BRANCH   1   8
ATOM      3  C   UNL     1      20.190  41.726  43.865  0.00  0.00    +0.000 A 
ATOM      4  C   UNL     1      20.173  40.526  43.150  0.00  0.00    +0.000 A 
ATOM      5  C   UNL     1      21.324  42.082  44.603  0.00  0.00    +0.000 A 
ATOM      6  C   UNL     1      21.222  39.613  43.305  0.00  0.00    +0.000 A 
ATOM      7  C   UNL     1      22.360  41.161  44.770  0.00  0.00    +0.000 A 
ATOM      8  C   UNL     1      22.290  39.902  44.163  0.00  0.00    +0.000 A 
BRANCH   3   9
ATOM      9  O   UNL     1      19.050  42.503  43.831  0.00  0.00    +0.000 OA
BRANCH   9  12
ATOM     10 BR   UNL     1      16.810  40.377  43.946  0.00  0.00    +0.000 Br
ATOM     11  C   UNL     1      17.228  41.745  45.194  0.00  0.00    +0.000 A 
ATOM     12  C   UNL     1      18.312  42.610  45.000  0.00  0.00    +0.000 A 
ATOM     13  C   UNL     1      16.417  41.871  46.329  0.00  0.00    +0.000 A 
ATOM     14  C   UNL     1      18.625  43.536  46.008  0.00  0.00    +0.000 A 
ATOM     15  C   UNL     1      16.695  42.847  47.285  0.00  0.00    +0.000 A 
ATOM     16  C   UNL     1      17.807  43.671  47.132  0.00  0.00    +0.000 A 
ENDBRANCH   9  12
ENDBRANCH   3   9
ENDBRANCH   1   8
BRANCH   2  17
ATOM     17  N   UNL     1      23.900  39.610  46.796  0.00  0.00    +0.000 N 
ATOM     18  C   UNL     1      24.933  40.529  46.893  0.00  0.00    +0.000 C 
ATOM     19  O   UNL     1      25.925  40.519  46.172  0.00  0.00    +0.000 OA
ATOM     20  H   UNL     1      23.186  39.612  47.473  0.00  0.00    +0.000 HD
BRANCH  18  21
ATOM     21  C   UNL     1      24.894  41.483  48.030  0.00  0.00    +0.000 A 
ATOM     22  C   UNL     1      23.635  41.789  48.571  0.00  0.00    +0.000 A 
ATOM     23  C   UNL     1      26.056  42.002  48.621  0.00  0.00    +0.000 A 
ATOM     24  C   UNL     1      23.545  42.587  49.704  0.00  0.00    +0.000 A 
ATOM     25  C   UNL     1      25.949  42.804  49.766  0.00  0.00    +0.000 A 
ATOM     26  F   UNL     1      22.339  42.860  50.218  0.00  0.00    +0.000 F 
ATOM     27  C   UNL     1      24.695  43.082  50.304  0.00  0.00    +0.000 A 
ATOM     28  F   UNL     1      24.605  43.820  51.419  0.00  0.00    +0.000 F 
ENDBRANCH  18  21
ENDBRANCH   2  17
BRANCH   2  29
ATOM     29  C   UNL     1      24.584  37.388  45.934  0.00  0.00    +0.000 C 
ATOM     30  O   UNL     1      25.614  37.075  45.363  0.00  0.00    +0.000 OA
ATOM     31  OXT UNL     1      23.943  36.582  46.811  0.00  0.00    +0.000 OA
ENDBRANCH   2  29
TORSDOF 6
ENDMDL
MODEL 3
REMARK VINA RESULT:      -6.2      1.685      2.090
REMARK  Name = 321038
REMARK  6 active torsions:
REMARK  status: ('A' for Active; 'I' for Inactive)
REMARK    1  A    between atoms: C_3  and  O_5
REMARK    2  A    between atoms: O_5  and  C_8
REMARK    3  A    between atoms: C_14  and  C_15
REMARK    4  A    between atoms: CA_16  and  N_17
REMARK    5  A    between atoms: CA_16  and  C_18
REMARK    6  A    between atoms: C_19  and  C_23
REMARK                            x       y       z     vdW  Elec       q    Type
REMARK                         _______ _______ _______ _____ _____    ______ ____
ROOT
ATOM      1  C   UNL     1      18.873  43.489  45.272  0.00  0.00    +0.000 C 
ATOM      2  CA  UNL     1      17.886  42.743  44.745  0.00  0.00    +0.000 C 
ENDROOT
BRANCH   1   8
ATOM      3  C   UNL     1      21.935  41.757  47.640  0.00  0.00    +0.000 A 
ATOM      4  C   UNL     1      20.673  41.964  48.202  0.00  0.00    +0.000 A 
ATOM      5  C   UNL     1      22.258  42.351  46.416  0.00  0.00    +0.000 A 
ATOM      6  C   UNL     1      19.687  42.629  47.465  0.00  0.00    +0.000 A 
ATOM      7  C   UNL     1      21.267  42.997  45.674  0.00  0.00    +0.000 A 
ATOM      8  C   UNL     1      19.963  43.093  46.173  0.00  0.00    +0.000 A 
BRANCH   3   9
ATOM      9  O   UNL     1      22.808  40.934  48.322  0.00  0.00    +0.000 OA
BRANCH   9  12
ATOM     10 BR   UNL     1      23.935  42.841  50.477  0.00  0.00    +0.000 Br
ATOM     11  C   UNL     1      24.827  42.028  49.013  0.00  0.00    +0.000 A 
ATOM     12  C   UNL     1      24.165  41.152  48.143  0.00  0.00    +0.000 A 
ATOM     13  C   UNL     1      26.182  42.326  48.819  0.00  0.00    +0.000 A 
ATOM     14  C   UNL     1      24.907  40.509  47.139  0.00  0.00    +0.000 A 
ATOM     15  C   UNL     1      26.888  41.739  47.769  0.00  0.00    +0.000 A 
ATOM     16  C   UNL     1      26.254  40.819  46.937  0.00  0.00    +0.000 A 
ENDBRANCH   9  12
ENDBRANCH   3   9
ENDBRANCH   1   8
BRANCH   2  17
ATOM     17  N   UNL     1      17.777  41.362  44.818  0.00  0.00    +0.000 N 
ATOM     18  C   UNL     1      16.930  40.757  45.733  0.00  0.00    +0.000 C 
ATOM     19  O   UNL     1      16.327  41.367  46.610  0.00  0.00    +0.000 OA
ATOM     20  H   UNL     1      18.311  40.802  44.210  0.00  0.00    +0.000 HD
BRANCH  18  21
ATOM     21  C   UNL     1      16.874  39.274  45.736  0.00  0.00    +0.000 A 
ATOM     22  C   UNL     1      17.503  38.603  44.673  0.00  0.00    +0.000 A 
ATOM     23  C   UNL     1      16.304  38.540  46.788  0.00  0.00    +0.000 A 
ATOM     24  C   UNL     1      17.579  37.218  44.679  0.00  0.00    +0.000 A 
ATOM     25  C   UNL     1      16.392  37.142  46.780  0.00  0.00    +0.000 A 
ATOM     26  F   UNL     1      18.193  36.591  43.667  0.00  0.00    +0.000 F 
ATOM     27  C   UNL     1      17.037  36.491  45.731  0.00  0.00    +0.000 A 
ATOM     28  F   UNL     1      17.146  35.156  45.751  0.00  0.00    +0.000 F 
ENDBRANCH  18  21
ENDBRANCH   2  17
BRANCH   2  29
ATOM     29  C   UNL     1      16.821  43.502  44.011  0.00  0.00    +0.000 C 
ATOM     30  O   UNL     1      16.296  44.532  44.394  0.00  0.00    +0.000 OA
ATOM     31  OXT UNL     1      16.495  42.888  42.850  0.00  0.00    +0.000 OA
ENDBRANCH   2  29
TORSDOF 6
ENDMDL
MODEL 4
REMARK VINA RESULT:      -5.7      4.387      8.475
REMARK  Name = 321038
REMARK  6 active torsions:
REMARK  status: ('A' for Active; 'I' for Inactive)
REMARK    1  A    between atoms: C_3  and  O_5
REMARK    2  A    between atoms: O_5  and  C_8
REMARK    3  A    between atoms: C_14  and  C_15
REMARK    4  A    between atoms: CA_16  and  N_17
REMARK    5  A    between atoms: CA_16  and  C_18
REMARK    6  A    between atoms: C_19  and  C_23
REMARK                            x       y       z     vdW  Elec       q    Type
REMARK                         _______ _______ _______ _____ _____    ______ ____
ROOT
ATOM      1  C   UNL     1      23.082  38.843  44.535  0.00  0.00    +0.000 C 
ATOM      2  CA  UNL     1      23.833  38.746  45.646  0.00  0.00    +0.000 C 
ENDROOT
BRANCH   1   8
ATOM      3  C   UNL     1      19.380  40.888  44.219  0.00  0.00    +0.000 A 
ATOM      4  C   UNL     1      19.702  39.910  43.273  0.00  0.00    +0.000 A 
ATOM      5  C   UNL     1      20.365  41.369  45.087  0.00  0.00    +0.000 A 
ATOM      6  C   UNL     1      20.963  39.303  43.307  0.00  0.00    +0.000 A 
ATOM      7  C   UNL     1      21.615  40.748  45.131  0.00  0.00    +0.000 A 
ATOM      8  C   UNL     1      21.902  39.678  44.275  0.00  0.00    +0.000 A 
BRANCH   3   9
ATOM      9  O   UNL     1      18.069  41.316  44.268  0.00  0.00    +0.000 OA
BRANCH   9  12
ATOM     10 BR   UNL     1      17.218  43.128  46.623  0.00  0.00    +0.000 Br
ATOM     11  C   UNL     1      16.761  41.319  46.278  0.00  0.00    +0.000 A 
ATOM     12  C   UNL     1      17.211  40.653  45.132  0.00  0.00    +0.000 A 
ATOM     13  C   UNL     1      15.950  40.656  47.209  0.00  0.00    +0.000 A 
ATOM     14  C   UNL     1      16.756  39.347  44.888  0.00  0.00    +0.000 A 
ATOM     15  C   UNL     1      15.569  39.332  46.991  0.00  0.00    +0.000 A 
ATOM     16  C   UNL     1      15.961  38.682  45.824  0.00  0.00    +0.000 A 
ENDBRANCH   9  12
ENDBRANCH   3   9
ENDBRANCH   1   8
BRANCH   2  17
ATOM     17  N   UNL     1      23.742  39.559  46.767  0.00  0.00    +0.000 N 
ATOM     18  C   UNL     1      24.615  40.618  46.956  0.00  0.00    +0.000 C 
ATOM     19  O   UNL     1      25.588  40.836  46.242  0.00  0.00    +0.000 OA
ATOM     20  H   UNL     1      23.045  39.381  47.438  0.00  0.00    +0.000 HD
BRANCH  18  21
ATOM     21  C   UNL     1      24.439  41.439  48.181  0.00  0.00    +0.000 A 
ATOM     22  C   UNL     1      25.602  41.836  48.863  0.00  0.00    +0.000 A 
ATOM     23  C   UNL     1      23.184  41.893  48.614  0.00  0.00    +0.000 A 
ATOM     24  C   UNL     1      25.506  42.695  49.949  0.00  0.00    +0.000 A 
ATOM     25  C   UNL     1      23.104  42.762  49.710  0.00  0.00    +0.000 A 
ATOM     26  F   UNL     1      26.623  43.078  50.581  0.00  0.00    +0.000 F 
ATOM     27  C   UNL     1      24.267  43.164  50.363  0.00  0.00    +0.000 A 
ATOM     28  F   UNL     1      24.183  44.023  51.388  0.00  0.00    +0.000 F 
ENDBRANCH  18  21
ENDBRANCH   2  17
BRANCH   2  29
ATOM     29  C   UNL     1      24.859  37.652  45.643  0.00  0.00    +0.000 C 
ATOM     30  O   UNL     1      25.969  37.727  45.147  0.00  0.00    +0.000 OA
ATOM     31  OXT UNL     1      24.392  36.542  46.260  0.00  0.00    +0.000 OA
ENDBRANCH   2  29
TORSDOF 6
ENDMDL
MODEL 5
REMARK VINA RESULT:      -5.2      1.976      2.824
REMARK  Name = 321038
REMARK  6 active torsions:
REMARK  status: ('A' for Active; 'I' for Inactive)
REMARK    1  A    between atoms: C_3  and  O_5
REMARK    2  A    between atoms: O_5  and  C_8
REMARK    3  A    between atoms: C_14  and  C_15
REMARK    4  A    between atoms: CA_16  and  N_17
REMARK    5  A    between atoms: CA_16  and  C_18
REMARK    6  A    between atoms: C_19  and  C_23
REMARK                            x       y       z     vdW  Elec       q    Type
REMARK                         _______ _______ _______ _____ _____    ______ ____
ROOT
ATOM      1  C   UNL     1      18.786  43.633  45.358  0.00  0.00    +0.000 C 
ATOM      2  CA  UNL     1      17.721  42.894  44.999  0.00  0.00    +0.000 C 
ENDROOT
BRANCH   1   8
ATOM      3  C   UNL     1      21.975  42.025  47.645  0.00  0.00    +0.000 A 
ATOM      4  C   UNL     1      20.725  42.198  48.245  0.00  0.00    +0.000 A 
ATOM      5  C   UNL     1      22.240  42.616  46.405  0.00  0.00    +0.000 A 
ATOM      6  C   UNL     1      19.695  42.822  47.533  0.00  0.00    +0.000 A 
ATOM      7  C   UNL     1      21.206  43.222  45.689  0.00  0.00    +0.000 A 
ATOM      8  C   UNL     1      19.915  43.282  46.229  0.00  0.00    +0.000 A 
BRANCH   3   9
ATOM      9  O   UNL     1      22.894  41.238  48.307  0.00  0.00    +0.000 OA
BRANCH   9  12
ATOM     10 BR   UNL     1      25.758  42.279  47.794  0.00  0.00    +0.000 Br
ATOM     11  C   UNL     1      24.942  40.676  47.191  0.00  0.00    +0.000 A 
ATOM     12  C   UNL     1      23.631  40.339  47.550  0.00  0.00    +0.000 A 
ATOM     13  C   UNL     1      25.690  39.826  46.367  0.00  0.00    +0.000 A 
ATOM     14  C   UNL     1      23.121  39.093  47.150  0.00  0.00    +0.000 A 
ATOM     15  C   UNL     1      25.142  38.626  45.914  0.00  0.00    +0.000 A 
ATOM     16  C   UNL     1      23.862  38.253  46.317  0.00  0.00    +0.000 A 
ENDBRANCH   9  12
ENDBRANCH   3   9
ENDBRANCH   1   8
BRANCH   2  17
ATOM     17  N   UNL     1      17.540  41.543  45.257  0.00  0.00    +0.000 N 
ATOM     18  C   UNL     1      18.114  40.576  44.447  0.00  0.00    +0.000 C 
ATOM     19  O   UNL     1      18.699  40.824  43.398  0.00  0.00    +0.000 OA
ATOM     20  H   UNL     1      16.995  41.267  46.028  0.00  0.00    +0.000 HD
BRANCH  18  21
ATOM     21  C   UNL     1      17.873  39.155  44.803  0.00  0.00    +0.000 A 
ATOM     22  C   UNL     1      17.153  38.900  45.982  0.00  0.00    +0.000 A 
ATOM     23  C   UNL     1      18.253  38.091  43.971  0.00  0.00    +0.000 A 
ATOM     24  C   UNL     1      16.801  37.598  46.310  0.00  0.00    +0.000 A 
ATOM     25  C   UNL     1      17.888  36.782  44.313  0.00  0.00    +0.000 A 
ATOM     26  F   UNL     1      16.103  37.370  47.429  0.00  0.00    +0.000 F 
ATOM     27  C   UNL     1      17.156  36.546  45.475  0.00  0.00    +0.000 A 
ATOM     28  F   UNL     1      16.781  35.296  45.775  0.00  0.00    +0.000 F 
ENDBRANCH  18  21
ENDBRANCH   2  17
BRANCH   2  29
ATOM     29  C   UNL     1      16.649  43.624  44.246  0.00  0.00    +0.000 C 
ATOM     30  O   UNL     1      16.155  44.688  44.574  0.00  0.00    +0.000 OA
ATOM     31  OXT UNL     1      16.279  42.942  43.138  0.00  0.00    +0.000 OA
ENDBRANCH   2  29
TORSDOF 6
ENDMDL
MODEL 6
REMARK VINA RESULT:      -4.8      3.457      4.509
REMARK  Name = 321038
REMARK  6 active torsions:
REMARK  status: ('A' for Active; 'I' for Inactive)
REMARK    1  A    between atoms: C_3  and  O_5
REMARK    2  A    between atoms: O_5  and  C_8
REMARK    3  A    between atoms: C_14  and  C_15
REMARK    4  A    between atoms: CA_16  and  N_17
REMARK    5  A    between atoms: CA_16  and  C_18
REMARK    6  A    between atoms: C_19  and  C_23
REMARK                            x       y       z     vdW  Elec       q    Type
REMARK                         _______ _______ _______ _____ _____    ______ ____
ROOT
ATOM      1  C   UNL     1      20.676  38.652  44.176  0.00  0.00    +0.000 C 
ATOM      2  CA  UNL     1      19.462  39.217  44.304  0.00  0.00    +0.000 C 
ENDROOT
BRANCH   1   8
ATOM      3  C   UNL     1      24.236  40.280  45.807  0.00  0.00    +0.000 A 
ATOM      4  C   UNL     1      23.391  41.103  45.058  0.00  0.00    +0.000 A 
ATOM      5  C   UNL     1      24.051  38.894  45.793  0.00  0.00    +0.000 A 
ATOM      6  C   UNL     1      22.268  40.553  44.429  0.00  0.00    +0.000 A 
ATOM      7  C   UNL     1      22.920  38.350  45.181  0.00  0.00    +0.000 A 
ATOM      8  C   UNL     1      21.996  39.184  44.539  0.00  0.00    +0.000 A 
BRANCH   3   9
ATOM      9  O   UNL     1      25.214  40.893  46.564  0.00  0.00    +0.000 OA
BRANCH   9  12
ATOM     10 BR   UNL     1      27.630  41.620  48.348  0.00  0.00    +0.000 Br
ATOM     11  C   UNL     1      25.782  41.926  48.652  0.00  0.00    +0.000 A 
ATOM     12  C   UNL     1      24.812  41.560  47.711  0.00  0.00    +0.000 A 
ATOM     13  C   UNL     1      25.405  42.537  49.855  0.00  0.00    +0.000 A 
ATOM     14  C   UNL     1      23.472  41.902  47.955  0.00  0.00    +0.000 A 
ATOM     15  C   UNL     1      24.061  42.802  50.117  0.00  0.00    +0.000 A 
ATOM     16  C   UNL     1      23.096  42.497  49.161  0.00  0.00    +0.000 A 
ENDBRANCH   9  12
ENDBRANCH   3   9
ENDBRANCH   1   8
BRANCH   2  17
ATOM     17  N   UNL     1      19.176  40.396  44.975  0.00  0.00    +0.000 N 
ATOM     18  C   UNL     1      18.309  40.414  46.056  0.00  0.00    +0.000 C 
ATOM     19  O   UNL     1      17.645  39.446  46.414  0.00  0.00    +0.000 OA
ATOM     20  H   UNL     1      19.597  41.235  44.679  0.00  0.00    +0.000 HD
BRANCH  18  21
ATOM     21  C   UNL     1      18.068  41.721  46.718  0.00  0.00    +0.000 A 
ATOM     22  C   UNL     1      18.815  42.005  47.874  0.00  0.00    +0.000 A 
ATOM     23  C   UNL     1      17.206  42.691  46.186  0.00  0.00    +0.000 A 
ATOM     24  C   UNL     1      18.714  43.253  48.472  0.00  0.00    +0.000 A 
ATOM     25  C   UNL     1      17.117  43.947  46.800  0.00  0.00    +0.000 A 
ATOM     26  F   UNL     1      19.443  43.516  49.565  0.00  0.00    +0.000 F 
ATOM     27  C   UNL     1      17.880  44.222  47.933  0.00  0.00    +0.000 A 
ATOM     28  F   UNL     1      17.815  45.438  48.492  0.00  0.00    +0.000 F 
ENDBRANCH  18  21
ENDBRANCH   2  17
BRANCH   2  29
ATOM     29  C   UNL     1      18.330  38.476  43.655  0.00  0.00    +0.000 C 
ATOM     30  O   UNL     1      18.173  37.268  43.676  0.00  0.00    +0.000 OA
ATOM     31  OXT UNL     1      17.490  39.325  43.020  0.00  0.00    +0.000 OA
ENDBRANCH   2  29
TORSDOF 6
ENDMDL
