MODEL 1
REMARK VINA RESULT:      -7.6      0.000      0.000
REMARK  Name = 323637
REMARK  8 active torsions:
REMARK  status: ('A' for Active; 'I' for Inactive)
REMARK    1  A    between atoms: C_3  and  O_5
REMARK    2  A    between atoms: O_5  and  C_8
REMARK    3  A    between atoms: C_14  and  C_15
REMARK    4  A    between atoms: CA_16  and  N_17
REMARK    5  A    between atoms: CA_16  and  C_18
REMARK    6  A    between atoms: C_19  and  C_23
REMARK    7  A    between atoms: C_23  and  C_24
REMARK    8  A    between atoms: C_24  and  C_25
REMARK                            x       y       z     vdW  Elec       q    Type
REMARK                         _______ _______ _______ _____ _____    ______ ____
ROOT
ATOM      1  C   UNL     1      22.587  42.293  48.400  0.00  0.00    +0.000 C 
ATOM      2  CA  UNL     1      23.654  41.685  47.845  0.00  0.00    +0.000 C 
ENDROOT
BRANCH   1   8
ATOM      3  C   UNL     1      18.559  42.206  47.114  0.00  0.00    +0.000 A 
ATOM      4  C   UNL     1      18.871  42.917  48.276  0.00  0.00    +0.000 A 
ATOM      5  C   UNL     1      19.485  41.319  46.567  0.00  0.00    +0.000 A 
ATOM      6  C   UNL     1      20.188  42.898  48.755  0.00  0.00    +0.000 A 
ATOM      7  C   UNL     1      20.790  41.299  47.044  0.00  0.00    +0.000 A 
ATOM      8  C   UNL     1      21.162  42.131  48.103  0.00  0.00    +0.000 A 
BRANCH   3   9
ATOM      9  O   UNL     1      17.380  42.299  46.429  0.00  0.00    +0.000 OA
BRANCH   9  12
ATOM     10  I   UNL     1      16.336  38.822  46.563  0.00  0.00    +0.000 I 
ATOM     11  C   UNL     1      16.837  40.235  45.076  0.00  0.00    +0.000 A 
ATOM     12  C   UNL     1      17.144  41.591  45.272  0.00  0.00    +0.000 A 
ATOM     13  C   UNL     1      16.681  39.741  43.767  0.00  0.00    +0.000 A 
ATOM     14  C   UNL     1      17.125  42.444  44.153  0.00  0.00    +0.000 A 
ATOM     15  C   UNL     1      16.705  40.599  42.669  0.00  0.00    +0.000 A 
ATOM     16  C   UNL     1      16.889  41.959  42.866  0.00  0.00    +0.000 A 
ENDBRANCH   9  12
ENDBRANCH   3   9
ENDBRANCH   1   8
BRANCH   2  17
ATOM     17  N   UNL     1      23.656  40.813  46.775  0.00  0.00    +0.000 N 
ATOM     18  C   UNL     1      23.633  39.432  46.867  0.00  0.00    +0.000 C 
ATOM     19  O   UNL     1      23.515  38.799  47.910  0.00  0.00    +0.000 OA
ATOM     20  H   UNL     1      23.678  41.206  45.873  0.00  0.00    +0.000 HD
BRANCH  18  21
ATOM     21  C   UNL     1      23.660  38.722  45.530  0.00  0.00    +0.000 C 
BRANCH  21  22
ATOM     22  C   UNL     1      23.737  39.780  44.427  0.00  0.00    +0.000 C 
BRANCH  22  23
ATOM     23  C   UNL     1      22.465  39.888  43.597  0.00  0.00    +0.000 C 
ATOM     24  C   UNL     1      21.857  41.287  43.663  0.00  0.00    +0.000 C 
ATOM     25  C   UNL     1      21.316  39.020  44.098  0.00  0.00    +0.000 C 
ATOM     26  C   UNL     1      20.414  41.098  43.206  0.00  0.00    +0.000 C 
ATOM     27  C   UNL     1      20.103  39.611  43.390  0.00  0.00    +0.000 C 
ENDBRANCH  22  23
ENDBRANCH  21  22
ENDBRANCH  18  21
ENDBRANCH   2  17
BRANCH   2  28
ATOM     28  C   UNL     1      24.968  41.988  48.513  0.00  0.00    +0.000 C 
ATOM     29  O   UNL     1      26.067  41.670  48.097  0.00  0.00    +0.000 OA
ATOM     30  OXT UNL     1      24.789  42.677  49.664  0.00  0.00    +0.000 OA
ENDBRANCH   2  28
TORSDOF 8
ENDMDL
MODEL 2
REMARK VINA RESULT:      -7.6      3.039      7.391
REMARK  Name = 323637
REMARK  8 active torsions:
REMARK  status: ('A' for Active; 'I' for Inactive)
REMARK    1  A    between atoms: C_3  and  O_5
REMARK    2  A    between atoms: O_5  and  C_8
REMARK    3  A    between atoms: C_14  and  C_15
REMARK    4  A    between atoms: CA_16  and  N_17
REMARK    5  A    between atoms: CA_16  and  C_18
REMARK    6  A    between atoms: C_19  and  C_23
REMARK    7  A    between atoms: C_23  and  C_24
REMARK    8  A    between atoms: C_24  and  C_25
REMARK                            x       y       z     vdW  Elec       q    Type
REMARK                         _______ _______ _______ _____ _____    ______ ____
ROOT
ATOM      1  C   UNL     1      19.560  42.130  43.581  0.00  0.00    +0.000 C 
ATOM      2  CA  UNL     1      18.279  41.712  43.531  0.00  0.00    +0.000 C 
ENDROOT
BRANCH   1   8
ATOM      3  C   UNL     1      21.966  41.525  47.006  0.00  0.00    +0.000 A 
ATOM      4  C   UNL     1      21.595  42.832  46.677  0.00  0.00    +0.000 A 
ATOM      5  C   UNL     1      21.798  40.496  46.082  0.00  0.00    +0.000 A 
ATOM      6  C   UNL     1      20.857  43.057  45.506  0.00  0.00    +0.000 A 
ATOM      7  C   UNL     1      21.069  40.720  44.920  0.00  0.00    +0.000 A 
ATOM      8  C   UNL     1      20.545  41.988  44.656  0.00  0.00    +0.000 A 
BRANCH   3   9
ATOM      9  O   UNL     1      22.503  41.139  48.203  0.00  0.00    +0.000 OA
BRANCH   9  12
ATOM     10  I   UNL     1      25.582  40.577  46.358  0.00  0.00    +0.000 I 
ATOM     11  C   UNL     1      25.009  41.465  48.187  0.00  0.00    +0.000 A 
ATOM     12  C   UNL     1      23.700  41.637  48.666  0.00  0.00    +0.000 A 
ATOM     13  C   UNL     1      26.084  42.056  48.877  0.00  0.00    +0.000 A 
ATOM     14  C   UNL     1      23.496  42.534  49.730  0.00  0.00    +0.000 A 
ATOM     15  C   UNL     1      25.860  42.911  49.955  0.00  0.00    +0.000 A 
ATOM     16  C   UNL     1      24.561  43.181  50.358  0.00  0.00    +0.000 A 
ENDBRANCH   9  12
ENDBRANCH   3   9
ENDBRANCH   1   8
BRANCH   2  17
ATOM     17  N   UNL     1      17.552  41.120  44.544  0.00  0.00    +0.000 N 
ATOM     18  C   UNL     1      17.014  41.781  45.636  0.00  0.00    +0.000 C 
ATOM     19  O   UNL     1      17.034  42.995  45.801  0.00  0.00    +0.000 OA
ATOM     20  H   UNL     1      17.405  40.149  44.486  0.00  0.00    +0.000 HD
BRANCH  18  21
ATOM     21  C   UNL     1      16.277  40.880  46.603  0.00  0.00    +0.000 C 
BRANCH  21  22
ATOM     22  C   UNL     1      17.295  39.940  47.253  0.00  0.00    +0.000 C 
BRANCH  22  23
ATOM     23  C   UNL     1      17.309  38.544  46.647  0.00  0.00    +0.000 C 
ATOM     24  C   UNL     1      18.171  38.476  45.388  0.00  0.00    +0.000 C 
ATOM     25  C   UNL     1      15.955  38.073  46.128  0.00  0.00    +0.000 C 
ATOM     26  C   UNL     1      17.707  37.209  44.676  0.00  0.00    +0.000 C 
ATOM     27  C   UNL     1      16.318  36.894  45.234  0.00  0.00    +0.000 C 
ENDBRANCH  22  23
ENDBRANCH  21  22
ENDBRANCH  18  21
ENDBRANCH   2  17
BRANCH   2  28
ATOM     28  C   UNL     1      17.610  41.899  42.196  0.00  0.00    +0.000 C 
ATOM     29  O   UNL     1      16.700  41.220  41.756  0.00  0.00    +0.000 OA
ATOM     30  OXT UNL     1      18.146  42.939  41.516  0.00  0.00    +0.000 OA
ENDBRANCH   2  28
TORSDOF 8
ENDMDL
MODEL 3
REMARK VINA RESULT:      -7.5      2.979      7.394
REMARK  Name = 323637
REMARK  8 active torsions:
REMARK  status: ('A' for Active; 'I' for Inactive)
REMARK    1  A    between atoms: C_3  and  O_5
REMARK    2  A    between atoms: O_5  and  C_8
REMARK    3  A    between atoms: C_14  and  C_15
REMARK    4  A    between atoms: CA_16  and  N_17
REMARK    5  A    between atoms: CA_16  and  C_18
REMARK    6  A    between atoms: C_19  and  C_23
REMARK    7  A    between atoms: C_23  and  C_24
REMARK    8  A    between atoms: C_24  and  C_25
REMARK                            x       y       z     vdW  Elec       q    Type
REMARK                         _______ _______ _______ _____ _____    ______ ____
ROOT
ATOM      1  C   UNL     1      19.370  41.795  43.519  0.00  0.00    +0.000 C 
ATOM      2  CA  UNL     1      18.083  41.396  43.519  0.00  0.00    +0.000 C 
ENDROOT
BRANCH   1   8
ATOM      3  C   UNL     1      21.864  41.339  46.904  0.00  0.00    +0.000 A 
ATOM      4  C   UNL     1      21.687  42.621  46.377  0.00  0.00    +0.000 A 
ATOM      5  C   UNL     1      21.475  40.220  46.170  0.00  0.00    +0.000 A 
ATOM      6  C   UNL     1      20.920  42.780  45.214  0.00  0.00    +0.000 A 
ATOM      7  C   UNL     1      20.718  40.378  45.015  0.00  0.00    +0.000 A 
ATOM      8  C   UNL     1      20.388  41.659  44.564  0.00  0.00    +0.000 A 
BRANCH   3   9
ATOM      9  O   UNL     1      22.409  41.061  48.127  0.00  0.00    +0.000 OA
BRANCH   9  12
ATOM     10  I   UNL     1      25.446  40.584  46.192  0.00  0.00    +0.000 I 
ATOM     11  C   UNL     1      24.899  41.479  48.025  0.00  0.00    +0.000 A 
ATOM     12  C   UNL     1      23.600  41.610  48.543  0.00  0.00    +0.000 A 
ATOM     13  C   UNL     1      25.972  42.122  48.671  0.00  0.00    +0.000 A 
ATOM     14  C   UNL     1      23.396  42.517  49.600  0.00  0.00    +0.000 A 
ATOM     15  C   UNL     1      25.751  42.985  49.742  0.00  0.00    +0.000 A 
ATOM     16  C   UNL     1      24.456  43.213  50.183  0.00  0.00    +0.000 A 
ENDBRANCH   9  12
ENDBRANCH   3   9
ENDBRANCH   1   8
BRANCH   2  17
ATOM     17  N   UNL     1      17.380  40.837  44.566  0.00  0.00    +0.000 N 
ATOM     18  C   UNL     1      17.235  39.480  44.801  0.00  0.00    +0.000 C 
ATOM     19  O   UNL     1      17.789  38.594  44.160  0.00  0.00    +0.000 OA
ATOM     20  H   UNL     1      16.945  41.454  45.198  0.00  0.00    +0.000 HD
BRANCH  18  21
ATOM     21  C   UNL     1      16.395  39.148  46.015  0.00  0.00    +0.000 C 
BRANCH  21  22
ATOM     22  C   UNL     1      17.014  39.842  47.231  0.00  0.00    +0.000 C 
BRANCH  22  23
ATOM     23  C   UNL     1      17.563  41.229  46.926  0.00  0.00    +0.000 C 
ATOM     24  C   UNL     1      18.537  41.706  48.001  0.00  0.00    +0.000 C 
ATOM     25  C   UNL     1      16.513  42.334  46.938  0.00  0.00    +0.000 C 
ATOM     26  C   UNL     1      18.608  43.218  47.807  0.00  0.00    +0.000 C 
ATOM     27  C   UNL     1      17.350  43.604  47.027  0.00  0.00    +0.000 C 
ENDBRANCH  22  23
ENDBRANCH  21  22
ENDBRANCH  18  21
ENDBRANCH   2  17
BRANCH   2  28
ATOM     28  C   UNL     1      17.374  41.566  42.202  0.00  0.00    +0.000 C 
ATOM     29  O   UNL     1      16.374  40.966  41.850  0.00  0.00    +0.000 OA
ATOM     30  OXT UNL     1      17.989  42.488  41.425  0.00  0.00    +0.000 OA
ENDBRANCH   2  28
TORSDOF 8
ENDMDL
MODEL 4
REMARK VINA RESULT:      -7.1      1.722      4.201
REMARK  Name = 323637
REMARK  8 active torsions:
REMARK  status: ('A' for Active; 'I' for Inactive)
REMARK    1  A    between atoms: C_3  and  O_5
REMARK    2  A    between atoms: O_5  and  C_8
REMARK    3  A    between atoms: C_14  and  C_15
REMARK    4  A    between atoms: CA_16  and  N_17
REMARK    5  A    between atoms: CA_16  and  C_18
REMARK    6  A    between atoms: C_19  and  C_23
REMARK    7  A    between atoms: C_23  and  C_24
REMARK    8  A    between atoms: C_24  and  C_25
REMARK                            x       y       z     vdW  Elec       q    Type
REMARK                         _______ _______ _______ _____ _____    ______ ____
ROOT
ATOM      1  C   UNL     1      25.376  40.526  46.930  0.00  0.00    +0.000 C 
ATOM      2  CA  UNL     1      25.114  41.485  47.840  0.00  0.00    +0.000 C 
ENDROOT
BRANCH   1   8
ATOM      3  C   UNL     1      22.482  39.254  44.121  0.00  0.00    +0.000 A 
ATOM      4  C   UNL     1      22.991  38.315  45.022  0.00  0.00    +0.000 A 
ATOM      5  C   UNL     1      23.116  40.485  43.959  0.00  0.00    +0.000 A 
ATOM      6  C   UNL     1      24.002  38.703  45.913  0.00  0.00    +0.000 A 
ATOM      7  C   UNL     1      24.120  40.868  44.841  0.00  0.00    +0.000 A 
ATOM      8  C   UNL     1      24.527  40.000  45.859  0.00  0.00    +0.000 A 
BRANCH   3   9
ATOM      9  O   UNL     1      21.372  39.075  43.344  0.00  0.00    +0.000 OA
BRANCH   9  12
ATOM     10  I   UNL     1      18.053  38.028  44.386  0.00  0.00    +0.000 I 
ATOM     11  C   UNL     1      18.956  39.770  43.605  0.00  0.00    +0.000 A 
ATOM     12  C   UNL     1      20.322  39.966  43.346  0.00  0.00    +0.000 A 
ATOM     13  C   UNL     1      18.066  40.856  43.499  0.00  0.00    +0.000 A 
ATOM     14  C   UNL     1      20.777  41.283  43.147  0.00  0.00    +0.000 A 
ATOM     15  C   UNL     1      18.535  42.147  43.261  0.00  0.00    +0.000 A 
ATOM     16  C   UNL     1      19.898  42.366  43.123  0.00  0.00    +0.000 A 
ENDBRANCH   9  12
ENDBRANCH   3   9
ENDBRANCH   1   8
BRANCH   2  17
ATOM     17  N   UNL     1      23.920  42.147  48.037  0.00  0.00    +0.000 N 
ATOM     18  C   UNL     1      22.674  41.547  48.114  0.00  0.00    +0.000 C 
ATOM     19  O   UNL     1      22.476  40.338  48.108  0.00  0.00    +0.000 OA
ATOM     20  H   UNL     1      23.956  43.126  48.130  0.00  0.00    +0.000 HD
BRANCH  18  21
ATOM     21  C   UNL     1      21.531  42.518  48.318  0.00  0.00    +0.000 C 
BRANCH  21  22
ATOM     22  C   UNL     1      20.665  42.511  47.057  0.00  0.00    +0.000 C 
BRANCH  22  23
ATOM     23  C   UNL     1      19.170  42.496  47.344  0.00  0.00    +0.000 C 
ATOM     24  C   UNL     1      18.530  41.161  46.973  0.00  0.00    +0.000 C 
ATOM     25  C   UNL     1      18.361  43.479  46.505  0.00  0.00    +0.000 C 
ATOM     26  C   UNL     1      17.039  41.468  46.870  0.00  0.00    +0.000 C 
ATOM     27  C   UNL     1      16.931  42.981  46.673  0.00  0.00    +0.000 C 
ENDBRANCH  22  23
ENDBRANCH  21  22
ENDBRANCH  18  21
ENDBRANCH   2  17
BRANCH   2  28
ATOM     28  C   UNL     1      26.289  41.874  48.697  0.00  0.00    +0.000 C 
ATOM     29  O   UNL     1      27.399  41.375  48.651  0.00  0.00    +0.000 OA
ATOM     30  OXT UNL     1      25.966  42.871  49.553  0.00  0.00    +0.000 OA
ENDBRANCH   2  28
TORSDOF 8
ENDMDL
MODEL 5
REMARK VINA RESULT:      -6.7      1.460      2.237
REMARK  Name = 323637
REMARK  8 active torsions:
REMARK  status: ('A' for Active; 'I' for Inactive)
REMARK    1  A    between atoms: C_3  and  O_5
REMARK    2  A    between atoms: O_5  and  C_8
REMARK    3  A    between atoms: C_14  and  C_15
REMARK    4  A    between atoms: CA_16  and  N_17
REMARK    5  A    between atoms: CA_16  and  C_18
REMARK    6  A    between atoms: C_19  and  C_23
REMARK    7  A    between atoms: C_23  and  C_24
REMARK    8  A    between atoms: C_24  and  C_25
REMARK                            x       y       z     vdW  Elec       q    Type
REMARK                         _______ _______ _______ _____ _____    ______ ____
ROOT
ATOM      1  C   UNL     1      22.360  42.547  48.758  0.00  0.00    +0.000 C 
ATOM      2  CA  UNL     1      23.615  42.100  48.558  0.00  0.00    +0.000 C 
ENDROOT
BRANCH   1   8
ATOM      3  C   UNL     1      18.620  41.628  47.010  0.00  0.00    +0.000 A 
ATOM      4  C   UNL     1      19.690  40.757  46.787  0.00  0.00    +0.000 A 
ATOM      5  C   UNL     1      18.849  42.897  47.538  0.00  0.00    +0.000 A 
ATOM      6  C   UNL     1      20.953  41.083  47.300  0.00  0.00    +0.000 A 
ATOM      7  C   UNL     1      20.102  43.221  48.045  0.00  0.00    +0.000 A 
ATOM      8  C   UNL     1      21.145  42.292  47.980  0.00  0.00    +0.000 A 
BRANCH   3   9
ATOM      9  O   UNL     1      17.309  41.344  46.747  0.00  0.00    +0.000 OA
BRANCH   9  12
ATOM     10  I   UNL     1      17.459  40.832  43.154  0.00  0.00    +0.000 I 
ATOM     11  C   UNL     1      16.788  39.762  44.847  0.00  0.00    +0.000 A 
ATOM     12  C   UNL     1      16.912  40.149  46.191  0.00  0.00    +0.000 A 
ATOM     13  C   UNL     1      16.313  38.474  44.536  0.00  0.00    +0.000 A 
ATOM     14  C   UNL     1      16.711  39.172  47.183  0.00  0.00    +0.000 A 
ATOM     15  C   UNL     1      16.082  37.534  45.538  0.00  0.00    +0.000 A 
ATOM     16  C   UNL     1      16.319  37.872  46.863  0.00  0.00    +0.000 A 
ENDBRANCH   9  12
ENDBRANCH   3   9
ENDBRANCH   1   8
BRANCH   2  17
ATOM     17  N   UNL     1      24.078  41.355  47.493  0.00  0.00    +0.000 N 
ATOM     18  C   UNL     1      24.116  39.972  47.439  0.00  0.00    +0.000 C 
ATOM     19  O   UNL     1      23.657  39.223  48.294  0.00  0.00    +0.000 OA
ATOM     20  H   UNL     1      24.411  41.847  46.708  0.00  0.00    +0.000 HD
BRANCH  18  21
ATOM     21  C   UNL     1      24.691  39.418  46.153  0.00  0.00    +0.000 C 
BRANCH  21  22
ATOM     22  C   UNL     1      24.600  40.504  45.079  0.00  0.00    +0.000 C 
BRANCH  22  23
ATOM     23  C   UNL     1      23.441  40.309  44.112  0.00  0.00    +0.000 C 
ATOM     24  C   UNL     1      22.371  41.386  44.277  0.00  0.00    +0.000 C 
ATOM     25  C   UNL     1      22.642  39.031  44.342  0.00  0.00    +0.000 C 
ATOM     26  C   UNL     1      21.130  40.795  43.615  0.00  0.00    +0.000 C 
ATOM     27  C   UNL     1      21.357  39.283  43.563  0.00  0.00    +0.000 C 
ENDBRANCH  22  23
ENDBRANCH  21  22
ENDBRANCH  18  21
ENDBRANCH   2  17
BRANCH   2  28
ATOM     28  C   UNL     1      24.586  42.445  49.655  0.00  0.00    +0.000 C 
ATOM     29  O   UNL     1      24.301  42.627  50.826  0.00  0.00    +0.000 OA
ATOM     30  OXT UNL     1      25.852  42.533  49.185  0.00  0.00    +0.000 OA
ENDBRANCH   2  28
TORSDOF 8
ENDMDL
MODEL 6
REMARK VINA RESULT:      -6.5      1.940      4.273
REMARK  Name = 323637
REMARK  8 active torsions:
REMARK  status: ('A' for Active; 'I' for Inactive)
REMARK    1  A    between atoms: C_3  and  O_5
REMARK    2  A    between atoms: O_5  and  C_8
REMARK    3  A    between atoms: C_14  and  C_15
REMARK    4  A    between atoms: CA_16  and  N_17
REMARK    5  A    between atoms: CA_16  and  C_18
REMARK    6  A    between atoms: C_19  and  C_23
REMARK    7  A    between atoms: C_23  and  C_24
REMARK    8  A    between atoms: C_24  and  C_25
REMARK                            x       y       z     vdW  Elec       q    Type
REMARK                         _______ _______ _______ _____ _____    ______ ____
ROOT
ATOM      1  C   UNL     1      24.387  40.530  46.014  0.00  0.00    +0.000 C 
ATOM      2  CA  UNL     1      24.273  41.383  47.051  0.00  0.00    +0.000 C 
ENDROOT
BRANCH   1   8
ATOM      3  C   UNL     1      21.134  39.467  43.529  0.00  0.00    +0.000 A 
ATOM      4  C   UNL     1      22.018  38.463  43.932  0.00  0.00    +0.000 A 
ATOM      5  C   UNL     1      21.475  40.808  43.694  0.00  0.00    +0.000 A 
ATOM      6  C   UNL     1      23.140  38.809  44.697  0.00  0.00    +0.000 A 
ATOM      7  C   UNL     1      22.590  41.151  44.450  0.00  0.00    +0.000 A 
ATOM      8  C   UNL     1      23.395  40.152  45.004  0.00  0.00    +0.000 A 
BRANCH   3   9
ATOM      9  O   UNL     1      19.909  39.253  42.961  0.00  0.00    +0.000 OA
BRANCH   9  12
ATOM     10  I   UNL     1      17.343  41.824  43.000  0.00  0.00    +0.000 I 
ATOM     11  C   UNL     1      17.704  39.978  43.960  0.00  0.00    +0.000 A 
ATOM     12  C   UNL     1      18.767  39.094  43.713  0.00  0.00    +0.000 A 
ATOM     13  C   UNL     1      16.657  39.583  44.814  0.00  0.00    +0.000 A 
ATOM     14  C   UNL     1      18.663  37.779  44.201  0.00  0.00    +0.000 A 
ATOM     15  C   UNL     1      16.595  38.285  45.319  0.00  0.00    +0.000 A 
ATOM     16  C   UNL     1      17.581  37.370  44.981  0.00  0.00    +0.000 A 
ENDBRANCH   9  12
ENDBRANCH   3   9
ENDBRANCH   1   8
BRANCH   2  17
ATOM     17  N   UNL     1      23.137  42.045  47.469  0.00  0.00    +0.000 N 
ATOM     18  C   UNL     1      21.907  41.455  47.706  0.00  0.00    +0.000 C 
ATOM     19  O   UNL     1      21.687  40.250  47.665  0.00  0.00    +0.000 OA
ATOM     20  H   UNL     1      23.206  43.017  47.608  0.00  0.00    +0.000 HD
BRANCH  18  21
ATOM     21  C   UNL     1      20.828  42.424  48.140  0.00  0.00    +0.000 C 
BRANCH  21  22
ATOM     22  C   UNL     1      20.389  43.232  46.917  0.00  0.00    +0.000 C 
BRANCH  22  23
ATOM     23  C   UNL     1      18.937  43.003  46.525  0.00  0.00    +0.000 C 
ATOM     24  C   UNL     1      18.022  44.106  47.051  0.00  0.00    +0.000 C 
ATOM     25  C   UNL     1      18.312  41.755  47.139  0.00  0.00    +0.000 C 
ATOM     26  C   UNL     1      16.623  43.502  46.993  0.00  0.00    +0.000 C 
ATOM     27  C   UNL     1      16.819  41.985  46.944  0.00  0.00    +0.000 C 
ENDBRANCH  22  23
ENDBRANCH  21  22
ENDBRANCH  18  21
ENDBRANCH   2  17
BRANCH   2  28
ATOM     28  C   UNL     1      25.556  41.642  47.793  0.00  0.00    +0.000 C 
ATOM     29  O   UNL     1      26.646  41.173  47.515  0.00  0.00    +0.000 OA
ATOM     30  OXT UNL     1      25.362  42.482  48.836  0.00  0.00    +0.000 OA
ENDBRANCH   2  28
TORSDOF 8
ENDMDL
MODEL 7
REMARK VINA RESULT:      -6.5      3.086      7.108
REMARK  Name = 323637
REMARK  8 active torsions:
REMARK  status: ('A' for Active; 'I' for Inactive)
REMARK    1  A    between atoms: C_3  and  O_5
REMARK    2  A    between atoms: O_5  and  C_8
REMARK    3  A    between atoms: C_14  and  C_15
REMARK    4  A    between atoms: CA_16  and  N_17
REMARK    5  A    between atoms: CA_16  and  C_18
REMARK    6  A    between atoms: C_19  and  C_23
REMARK    7  A    between atoms: C_23  and  C_24
REMARK    8  A    between atoms: C_24  and  C_25
REMARK                            x       y       z     vdW  Elec       q    Type
REMARK                         _______ _______ _______ _____ _____    ______ ____
ROOT
ATOM      1  C   UNL     1      19.194  42.568  44.176  0.00  0.00    +0.000 C 
ATOM      2  CA  UNL     1      18.542  41.607  43.493  0.00  0.00    +0.000 C 
ENDROOT
BRANCH   1   8
ATOM      3  C   UNL     1      21.661  41.655  47.488  0.00  0.00    +0.000 A 
ATOM      4  C   UNL     1      20.351  42.077  47.731  0.00  0.00    +0.000 A 
ATOM      5  C   UNL     1      22.224  41.812  46.222  0.00  0.00    +0.000 A 
ATOM      6  C   UNL     1      19.543  42.451  46.649  0.00  0.00    +0.000 A 
ATOM      7  C   UNL     1      21.422  42.185  45.150  0.00  0.00    +0.000 A 
ATOM      8  C   UNL     1      20.064  42.450  45.349  0.00  0.00    +0.000 A 
BRANCH   3   9
ATOM      9  O   UNL     1      22.485  41.077  48.413  0.00  0.00    +0.000 OA
BRANCH   9  12
ATOM     10  I   UNL     1      25.454  40.470  46.411  0.00  0.00    +0.000 I 
ATOM     11  C   UNL     1      24.975  41.456  48.216  0.00  0.00    +0.000 A 
ATOM     12  C   UNL     1      23.695  41.628  48.767  0.00  0.00    +0.000 A 
ATOM     13  C   UNL     1      26.076  42.113  48.798  0.00  0.00    +0.000 A 
ATOM     14  C   UNL     1      23.535  42.585  49.787  0.00  0.00    +0.000 A 
ATOM     15  C   UNL     1      25.899  43.027  49.835  0.00  0.00    +0.000 A 
ATOM     16  C   UNL     1      24.621  43.292  50.304  0.00  0.00    +0.000 A 
ENDBRANCH   9  12
ENDBRANCH   3   9
ENDBRANCH   1   8
BRANCH   2  17
ATOM     17  N   UNL     1      18.466  40.264  43.803  0.00  0.00    +0.000 N 
ATOM     18  C   UNL     1      19.474  39.337  43.600  0.00  0.00    +0.000 C 
ATOM     19  O   UNL     1      20.602  39.602  43.202  0.00  0.00    +0.000 OA
ATOM     20  H   UNL     1      17.626  39.939  44.199  0.00  0.00    +0.000 HD
BRANCH  18  21
ATOM     21  C   UNL     1      19.112  37.927  44.017  0.00  0.00    +0.000 C 
BRANCH  21  22
ATOM     22  C   UNL     1      17.606  37.878  44.285  0.00  0.00    +0.000 C 
BRANCH  22  23
ATOM     23  C   UNL     1      17.239  38.115  45.743  0.00  0.00    +0.000 C 
ATOM     24  C   UNL     1      15.761  38.461  45.911  0.00  0.00    +0.000 C 
ATOM     25  C   UNL     1      17.920  39.325  46.371  0.00  0.00    +0.000 C 
ATOM     26  C   UNL     1      15.675  39.110  47.289  0.00  0.00    +0.000 C 
ATOM     27  C   UNL     1      17.094  39.572  47.627  0.00  0.00    +0.000 C 
ENDBRANCH  22  23
ENDBRANCH  21  22
ENDBRANCH  18  21
ENDBRANCH   2  17
BRANCH   2  28
ATOM     28  C   UNL     1      17.858  42.083  42.240  0.00  0.00    +0.000 C 
ATOM     29  O   UNL     1      16.942  41.516  41.670  0.00  0.00    +0.000 OA
ATOM     30  OXT UNL     1      18.388  43.248  41.800  0.00  0.00    +0.000 OA
ENDBRANCH   2  28
TORSDOF 8
ENDMDL
MODEL 8
REMARK VINA RESULT:      -6.3      2.246      4.948
REMARK  Name = 323637
REMARK  8 active torsions:
REMARK  status: ('A' for Active; 'I' for Inactive)
REMARK    1  A    between atoms: C_3  and  O_5
REMARK    2  A    between atoms: O_5  and  C_8
REMARK    3  A    between atoms: C_14  and  C_15
REMARK    4  A    between atoms: CA_16  and  N_17
REMARK    5  A    between atoms: CA_16  and  C_18
REMARK    6  A    between atoms: C_19  and  C_23
REMARK    7  A    between atoms: C_23  and  C_24
REMARK    8  A    between atoms: C_24  and  C_25
REMARK                            x       y       z     vdW  Elec       q    Type
REMARK                         _______ _______ _______ _____ _____    ______ ____
ROOT
ATOM      1  C   UNL     1      23.057  40.564  43.526  0.00  0.00    +0.000 C 
ATOM      2  CA  UNL     1      23.756  40.665  44.674  0.00  0.00    +0.000 C 
ENDROOT
BRANCH   1   8
ATOM      3  C   UNL     1      18.831  40.385  43.506  0.00  0.00    +0.000 A 
ATOM      4  C   UNL     1      19.548  39.189  43.407  0.00  0.00    +0.000 A 
ATOM      5  C   UNL     1      19.477  41.606  43.322  0.00  0.00    +0.000 A 
ATOM      6  C   UNL     1      20.947  39.236  43.341  0.00  0.00    +0.000 A 
ATOM      7  C   UNL     1      20.865  41.652  43.254  0.00  0.00    +0.000 A 
ATOM      8  C   UNL     1      21.609  40.471  43.322  0.00  0.00    +0.000 A 
BRANCH   3   9
ATOM      9  O   UNL     1      17.495  40.479  43.779  0.00  0.00    +0.000 OA
BRANCH   9  12
ATOM     10  I   UNL     1      16.988  42.941  46.402  0.00  0.00    +0.000 I 
ATOM     11  C   UNL     1      16.775  40.852  46.173  0.00  0.00    +0.000 A 
ATOM     12  C   UNL     1      16.965  40.111  44.995  0.00  0.00    +0.000 A 
ATOM     13  C   UNL     1      16.243  40.221  47.313  0.00  0.00    +0.000 A 
ATOM     14  C   UNL     1      16.461  38.798  44.950  0.00  0.00    +0.000 A 
ATOM     15  C   UNL     1      15.786  38.905  47.256  0.00  0.00    +0.000 A 
ATOM     16  C   UNL     1      15.860  38.205  46.061  0.00  0.00    +0.000 A 
ENDBRANCH   9  12
ENDBRANCH   3   9
ENDBRANCH   1   8
BRANCH   2  17
ATOM     17  N   UNL     1      23.263  40.609  45.962  0.00  0.00    +0.000 N 
ATOM     18  C   UNL     1      22.569  41.623  46.599  0.00  0.00    +0.000 C 
ATOM     19  O   UNL     1      22.219  42.673  46.073  0.00  0.00    +0.000 OA
ATOM     20  H   UNL     1      23.419  39.780  46.469  0.00  0.00    +0.000 HD
BRANCH  18  21
ATOM     21  C   UNL     1      22.160  41.296  48.020  0.00  0.00    +0.000 C 
BRANCH  21  22
ATOM     22  C   UNL     1      23.283  40.481  48.666  0.00  0.00    +0.000 C 
BRANCH  22  23
ATOM     23  C   UNL     1      24.246  41.320  49.493  0.00  0.00    +0.000 C 
ATOM     24  C   UNL     1      23.576  42.570  50.058  0.00  0.00    +0.000 C 
ATOM     25  C   UNL     1      25.402  41.914  48.696  0.00  0.00    +0.000 C 
ATOM     26  C   UNL     1      24.734  43.491  50.426  0.00  0.00    +0.000 C 
ATOM     27  C   UNL     1      25.939  42.998  49.623  0.00  0.00    +0.000 C 
ENDBRANCH  22  23
ENDBRANCH  21  22
ENDBRANCH  18  21
ENDBRANCH   2  17
BRANCH   2  28
ATOM     28  C   UNL     1      25.231  40.897  44.491  0.00  0.00    +0.000 C 
ATOM     29  O   UNL     1      25.769  41.283  43.468  0.00  0.00    +0.000 OA
ATOM     30  OXT UNL     1      25.919  40.622  45.623  0.00  0.00    +0.000 OA
ENDBRANCH   2  28
TORSDOF 8
ENDMDL
MODEL 9
REMARK VINA RESULT:      -6.0      2.447      7.455
REMARK  Name = 323637
REMARK  8 active torsions:
REMARK  status: ('A' for Active; 'I' for Inactive)
REMARK    1  A    between atoms: C_3  and  O_5
REMARK    2  A    between atoms: O_5  and  C_8
REMARK    3  A    between atoms: C_14  and  C_15
REMARK    4  A    between atoms: CA_16  and  N_17
REMARK    5  A    between atoms: CA_16  and  C_18
REMARK    6  A    between atoms: C_19  and  C_23
REMARK    7  A    between atoms: C_23  and  C_24
REMARK    8  A    between atoms: C_24  and  C_25
REMARK                            x       y       z     vdW  Elec       q    Type
REMARK                         _______ _______ _______ _____ _____    ______ ____
ROOT
ATOM      1  C   UNL     1      21.171  39.255  43.827  0.00  0.00    +0.000 C 
ATOM      2  CA  UNL     1      20.007  39.833  44.180  0.00  0.00    +0.000 C 
ENDROOT
BRANCH   1   8
ATOM      3  C   UNL     1      24.804  40.122  45.811  0.00  0.00    +0.000 A 
ATOM      4  C   UNL     1      24.407  40.951  44.759  0.00  0.00    +0.000 A 
ATOM      5  C   UNL     1      24.181  38.890  46.005  0.00  0.00    +0.000 A 
ATOM      6  C   UNL     1      23.242  40.638  44.045  0.00  0.00    +0.000 A 
ATOM      7  C   UNL     1      23.027  38.578  45.295  0.00  0.00    +0.000 A 
ATOM      8  C   UNL     1      22.520  39.477  44.353  0.00  0.00    +0.000 A 
BRANCH   3   9
ATOM      9  O   UNL     1      25.791  40.413  46.711  0.00  0.00    +0.000 OA
BRANCH   9  12
ATOM     10  I   UNL     1      22.426  41.195  47.835  0.00  0.00    +0.000 I 
ATOM     11  C   UNL     1      24.398  41.773  48.322  0.00  0.00    +0.000 A 
ATOM     12  C   UNL     1      25.585  41.255  47.781  0.00  0.00    +0.000 A 
ATOM     13  C   UNL     1      24.462  42.663  49.411  0.00  0.00    +0.000 A 
ATOM     14  C   UNL     1      26.792  41.519  48.455  0.00  0.00    +0.000 A 
ATOM     15  C   UNL     1      25.674  42.942  50.039  0.00  0.00    +0.000 A 
ATOM     16  C   UNL     1      26.837  42.337  49.584  0.00  0.00    +0.000 A 
ENDBRANCH   9  12
ENDBRANCH   3   9
ENDBRANCH   1   8
BRANCH   2  17
ATOM     17  N   UNL     1      19.823  40.864  45.080  0.00  0.00    +0.000 N 
ATOM     18  C   UNL     1      19.741  42.207  44.754  0.00  0.00    +0.000 C 
ATOM     19  O   UNL     1      19.728  42.652  43.613  0.00  0.00    +0.000 OA
ATOM     20  H   UNL     1      19.746  40.624  46.031  0.00  0.00    +0.000 HD
BRANCH  18  21
ATOM     21  C   UNL     1      19.556  43.123  45.945  0.00  0.00    +0.000 C 
BRANCH  21  22
ATOM     22  C   UNL     1      18.058  43.388  46.117  0.00  0.00    +0.000 C 
BRANCH  22  23
ATOM     23  C   UNL     1      17.294  42.207  46.698  0.00  0.00    +0.000 C 
ATOM     24  C   UNL     1      18.223  41.199  47.371  0.00  0.00    +0.000 C 
ATOM     25  C   UNL     1      16.592  41.342  45.657  0.00  0.00    +0.000 C 
ATOM     26  C   UNL     1      17.398  39.919  47.460  0.00  0.00    +0.000 C 
ATOM     27  C   UNL     1      16.282  40.062  46.423  0.00  0.00    +0.000 C 
ENDBRANCH  22  23
ENDBRANCH  21  22
ENDBRANCH  18  21
ENDBRANCH   2  17
BRANCH   2  28
ATOM     28  C   UNL     1      18.788  39.242  43.525  0.00  0.00    +0.000 C 
ATOM     29  O   UNL     1      18.008  39.838  42.803  0.00  0.00    +0.000 OA
ATOM     30  OXT UNL     1      18.648  37.931  43.833  0.00  0.00    +0.000 OA
ENDBRANCH   2  28
TORSDOF 8
ENDMDL
