MODEL 1
REMARK VINA RESULT:      -8.6      0.000      0.000
REMARK  Name = 319952
REMARK  8 active torsions:
REMARK  status: ('A' for Active; 'I' for Inactive)
REMARK    1  A    between atoms: C_3  and  O_5
REMARK    2  A    between atoms: O_5  and  C_8
REMARK    3  A    between atoms: C_14  and  C_15
REMARK    4  A    between atoms: CA_16  and  N_17
REMARK    5  A    between atoms: CA_16  and  C_18
REMARK    6  A    between atoms: C_19  and  C_23
REMARK    7  A    between atoms: C_24  and  C_27
REMARK    8  A    between atoms: C_27  and  C_30
REMARK                            x       y       z     vdW  Elec       q    Type
REMARK                         _______ _______ _______ _____ _____    ______ ____
ROOT
ATOM      1  C   UNL     1      20.226  42.396  43.598  0.00  0.00    +0.000 C 
ATOM      2  CA  UNL     1      18.978  41.933  43.404  0.00  0.00    +0.000 C 
ENDROOT
BRANCH   1   8
ATOM      3  C   UNL     1      22.532  41.263  46.980  0.00  0.00    +0.000 A 
ATOM      4  C   UNL     1      21.864  42.485  46.994  0.00  0.00    +0.000 A 
ATOM      5  C   UNL     1      22.653  40.548  45.785  0.00  0.00    +0.000 A 
ATOM      6  C   UNL     1      21.183  42.914  45.849  0.00  0.00    +0.000 A 
ATOM      7  C   UNL     1      21.963  40.972  44.646  0.00  0.00    +0.000 A 
ATOM      8  C   UNL     1      21.184  42.135  44.686  0.00  0.00    +0.000 A 
BRANCH   3   9
ATOM      9  O   UNL     1      23.029  40.792  48.177  0.00  0.00    +0.000 OA
BRANCH   9  12
ATOM     10 BR   UNL     1      25.795  40.720  46.809  0.00  0.00    +0.000 Br
ATOM     11  C   UNL     1      25.260  41.643  48.378  0.00  0.00    +0.000 A 
ATOM     12  C   UNL     1      23.944  41.586  48.852  0.00  0.00    +0.000 A 
ATOM     13  C   UNL     1      26.226  42.392  49.062  0.00  0.00    +0.000 A 
ATOM     14  C   UNL     1      23.594  42.358  49.971  0.00  0.00    +0.000 A 
ATOM     15  C   UNL     1      25.879  43.101  50.213  0.00  0.00    +0.000 A 
ATOM     16  C   UNL     1      24.562  43.093  50.661  0.00  0.00    +0.000 A 
ENDBRANCH   9  12
ENDBRANCH   3   9
ENDBRANCH   1   8
BRANCH   2  17
ATOM     17  N   UNL     1      18.345  40.939  44.141  0.00  0.00    +0.000 N 
ATOM     18  C   UNL     1      18.746  39.616  44.044  0.00  0.00    +0.000 C 
ATOM     19  O   UNL     1      19.626  39.238  43.277  0.00  0.00    +0.000 OA
ATOM     20  H   UNL     1      17.602  41.179  44.741  0.00  0.00    +0.000 HD
BRANCH  18  21
ATOM     21  C   UNL     1      17.983  38.602  44.823  0.00  0.00    +0.000 A 
ATOM     22  C   UNL     1      17.243  38.985  45.972  0.00  0.00    +0.000 A 
ATOM     23  C   UNL     1      17.893  37.299  44.311  0.00  0.00    +0.000 A 
ATOM     24  C   UNL     1      16.361  38.042  46.525  0.00  0.00    +0.000 A 
ATOM     25  C   UNL     1      17.019  36.382  44.891  0.00  0.00    +0.000 A 
ATOM     26  C   UNL     1      16.243  36.759  45.984  0.00  0.00    +0.000 A 
BRANCH  22  27
ATOM     27  C   UNL     1      17.311  40.400  46.520  0.00  0.00    +0.000 C 
ATOM     28  C   UNL     1      18.496  40.768  47.407  0.00  0.00    +0.000 C 
ENDBRANCH  22  27
ENDBRANCH  18  21
ENDBRANCH   2  17
BRANCH   2  29
ATOM     29  C   UNL     1      18.237  42.538  42.246  0.00  0.00    +0.000 C 
ATOM     30  O   UNL     1      18.481  43.618  41.733  0.00  0.00    +0.000 OA
ATOM     31  OXT UNL     1      17.244  41.722  41.819  0.00  0.00    +0.000 OA
ENDBRANCH   2  29
TORSDOF 7
ENDMDL
MODEL 2
REMARK VINA RESULT:      -7.4      0.697      1.907
REMARK  Name = 319952
REMARK  8 active torsions:
REMARK  status: ('A' for Active; 'I' for Inactive)
REMARK    1  A    between atoms: C_3  and  O_5
REMARK    2  A    between atoms: O_5  and  C_8
REMARK    3  A    between atoms: C_14  and  C_15
REMARK    4  A    between atoms: CA_16  and  N_17
REMARK    5  A    between atoms: CA_16  and  C_18
REMARK    6  A    between atoms: C_19  and  C_23
REMARK    7  A    between atoms: C_24  and  C_27
REMARK    8  A    between atoms: C_27  and  C_30
REMARK                            x       y       z     vdW  Elec       q    Type
REMARK                         _______ _______ _______ _____ _____    ______ ____
ROOT
ATOM      1  C   UNL     1      20.368  42.263  43.399  0.00  0.00    +0.000 C 
ATOM      2  CA  UNL     1      19.030  42.136  43.337  0.00  0.00    +0.000 C 
ENDROOT
BRANCH   1   8
ATOM      3  C   UNL     1      22.575  41.137  46.848  0.00  0.00    +0.000 A 
ATOM      4  C   UNL     1      22.081  42.436  46.754  0.00  0.00    +0.000 A 
ATOM      5  C   UNL     1      22.570  40.306  45.724  0.00  0.00    +0.000 A 
ATOM      6  C   UNL     1      21.438  42.848  45.581  0.00  0.00    +0.000 A 
ATOM      7  C   UNL     1      21.918  40.715  44.557  0.00  0.00    +0.000 A 
ATOM      8  C   UNL     1      21.305  41.973  44.496  0.00  0.00    +0.000 A 
BRANCH   3   9
ATOM      9  O   UNL     1      23.031  40.713  48.078  0.00  0.00    +0.000 OA
BRANCH   9  12
ATOM     10 BR   UNL     1      25.797  40.656  46.710  0.00  0.00    +0.000 Br
ATOM     11  C   UNL     1      25.253  41.591  48.269  0.00  0.00    +0.000 A 
ATOM     12  C   UNL     1      23.938  41.525  48.744  0.00  0.00    +0.000 A 
ATOM     13  C   UNL     1      26.211  42.357  48.944  0.00  0.00    +0.000 A 
ATOM     14  C   UNL     1      23.580  42.305  49.854  0.00  0.00    +0.000 A 
ATOM     15  C   UNL     1      25.857  43.075  50.087  0.00  0.00    +0.000 A 
ATOM     16  C   UNL     1      24.540  43.058  50.536  0.00  0.00    +0.000 A 
ENDBRANCH   9  12
ENDBRANCH   3   9
ENDBRANCH   1   8
BRANCH   2  17
ATOM     17  N   UNL     1      18.216  41.527  44.286  0.00  0.00    +0.000 N 
ATOM     18  C   UNL     1      18.053  40.152  44.307  0.00  0.00    +0.000 C 
ATOM     19  O   UNL     1      18.558  39.405  43.475  0.00  0.00    +0.000 OA
ATOM     20  H   UNL     1      17.751  42.082  44.953  0.00  0.00    +0.000 HD
BRANCH  18  21
ATOM     21  C   UNL     1      17.123  39.580  45.320  0.00  0.00    +0.000 A 
ATOM     22  C   UNL     1      16.991  38.174  45.463  0.00  0.00    +0.000 A 
ATOM     23  C   UNL     1      16.502  40.457  46.223  0.00  0.00    +0.000 A 
ATOM     24  C   UNL     1      16.288  37.695  46.581  0.00  0.00    +0.000 A 
ATOM     25  C   UNL     1      15.799  39.949  47.314  0.00  0.00    +0.000 A 
ATOM     26  C   UNL     1      15.708  38.572  47.501  0.00  0.00    +0.000 A 
BRANCH  22  27
ATOM     27  C   UNL     1      17.680  37.215  44.508  0.00  0.00    +0.000 C 
ATOM     28  C   UNL     1      17.018  35.867  44.244  0.00  0.00    +0.000 C 
ENDBRANCH  22  27
ENDBRANCH  18  21
ENDBRANCH   2  17
BRANCH   2  29
ATOM     29  C   UNL     1      18.385  42.674  42.092  0.00  0.00    +0.000 C 
ATOM     30  O   UNL     1      17.475  42.142  41.477  0.00  0.00    +0.000 OA
ATOM     31  OXT UNL     1      18.938  43.854  41.724  0.00  0.00    +0.000 OA
ENDBRANCH   2  29
TORSDOF 7
ENDMDL
MODEL 3
REMARK VINA RESULT:      -7.4      1.845      2.383
REMARK  Name = 319952
REMARK  8 active torsions:
REMARK  status: ('A' for Active; 'I' for Inactive)
REMARK    1  A    between atoms: C_3  and  O_5
REMARK    2  A    between atoms: O_5  and  C_8
REMARK    3  A    between atoms: C_14  and  C_15
REMARK    4  A    between atoms: CA_16  and  N_17
REMARK    5  A    between atoms: CA_16  and  C_18
REMARK    6  A    between atoms: C_19  and  C_23
REMARK    7  A    between atoms: C_24  and  C_27
REMARK    8  A    between atoms: C_27  and  C_30
REMARK                            x       y       z     vdW  Elec       q    Type
REMARK                         _______ _______ _______ _____ _____    ______ ____
ROOT
ATOM      1  C   UNL     1      19.141  43.029  45.831  0.00  0.00    +0.000 C 
ATOM      2  CA  UNL     1      17.948  42.557  45.424  0.00  0.00    +0.000 C 
ENDROOT
BRANCH   1   8
ATOM      3  C   UNL     1      22.747  41.255  47.205  0.00  0.00    +0.000 A 
ATOM      4  C   UNL     1      22.812  42.416  46.438  0.00  0.00    +0.000 A 
ATOM      5  C   UNL     1      21.545  40.548  47.299  0.00  0.00    +0.000 A 
ATOM      6  C   UNL     1      21.638  42.954  45.897  0.00  0.00    +0.000 A 
ATOM      7  C   UNL     1      20.372  41.093  46.767  0.00  0.00    +0.000 A 
ATOM      8  C   UNL     1      20.405  42.325  46.104  0.00  0.00    +0.000 A 
BRANCH   3   9
ATOM      9  O   UNL     1      23.889  40.864  47.872  0.00  0.00    +0.000 OA
BRANCH   9  12
ATOM     10 BR   UNL     1      26.863  41.569  47.441  0.00  0.00    +0.000 Br
ATOM     11  C   UNL     1      25.704  42.083  48.852  0.00  0.00    +0.000 A 
ATOM     12  C   UNL     1      24.361  41.690  48.881  0.00  0.00    +0.000 A 
ATOM     13  C   UNL     1      26.232  42.873  49.882  0.00  0.00    +0.000 A 
ATOM     14  C   UNL     1      23.537  42.172  49.910  0.00  0.00    +0.000 A 
ATOM     15  C   UNL     1      25.417  43.290  50.935  0.00  0.00    +0.000 A 
ATOM     16  C   UNL     1      24.068  42.948  50.944  0.00  0.00    +0.000 A 
ENDBRANCH   9  12
ENDBRANCH   3   9
ENDBRANCH   1   8
BRANCH   2  17
ATOM     17  N   UNL     1      17.678  41.260  45.003  0.00  0.00    +0.000 N 
ATOM     18  C   UNL     1      17.315  40.278  45.911  0.00  0.00    +0.000 C 
ATOM     19  O   UNL     1      17.265  40.471  47.122  0.00  0.00    +0.000 OA
ATOM     20  H   UNL     1      17.744  41.036  44.046  0.00  0.00    +0.000 HD
BRANCH  18  21
ATOM     21  C   UNL     1      17.094  38.900  45.391  0.00  0.00    +0.000 A 
ATOM     22  C   UNL     1      17.852  38.415  44.293  0.00  0.00    +0.000 A 
ATOM     23  C   UNL     1      16.234  38.050  46.103  0.00  0.00    +0.000 A 
ATOM     24  C   UNL     1      17.772  37.045  43.998  0.00  0.00    +0.000 A 
ATOM     25  C   UNL     1      16.167  36.696  45.776  0.00  0.00    +0.000 A 
ATOM     26  C   UNL     1      16.947  36.194  44.738  0.00  0.00    +0.000 A 
BRANCH  22  27
ATOM     27  C   UNL     1      18.806  39.320  43.531  0.00  0.00    +0.000 C 
ATOM     28  C   UNL     1      20.296  39.208  43.837  0.00  0.00    +0.000 C 
ENDBRANCH  22  27
ENDBRANCH  18  21
ENDBRANCH   2  17
BRANCH   2  29
ATOM     29  C   UNL     1      16.832  43.560  45.393  0.00  0.00    +0.000 C 
ATOM     30  O   UNL     1      16.359  44.064  44.387  0.00  0.00    +0.000 OA
ATOM     31  OXT UNL     1      16.390  43.843  46.642  0.00  0.00    +0.000 OA
ENDBRANCH   2  29
TORSDOF 7
ENDMDL
MODEL 4
REMARK VINA RESULT:      -7.3      3.087      7.564
REMARK  Name = 319952
REMARK  8 active torsions:
REMARK  status: ('A' for Active; 'I' for Inactive)
REMARK    1  A    between atoms: C_3  and  O_5
REMARK    2  A    between atoms: O_5  and  C_8
REMARK    3  A    between atoms: C_14  and  C_15
REMARK    4  A    between atoms: CA_16  and  N_17
REMARK    5  A    between atoms: CA_16  and  C_18
REMARK    6  A    between atoms: C_19  and  C_23
REMARK    7  A    between atoms: C_24  and  C_27
REMARK    8  A    between atoms: C_27  and  C_30
REMARK                            x       y       z     vdW  Elec       q    Type
REMARK                         _______ _______ _______ _____ _____    ______ ____
ROOT
ATOM      1  C   UNL     1      23.091  38.838  44.553  0.00  0.00    +0.000 C 
ATOM      2  CA  UNL     1      23.737  38.765  45.731  0.00  0.00    +0.000 C 
ENDROOT
BRANCH   1   8
ATOM      3  C   UNL     1      19.949  41.571  43.720  0.00  0.00    +0.000 A 
ATOM      4  C   UNL     1      19.855  40.265  43.244  0.00  0.00    +0.000 A 
ATOM      5  C   UNL     1      21.161  42.041  44.231  0.00  0.00    +0.000 A 
ATOM      6  C   UNL     1      20.927  39.384  43.427  0.00  0.00    +0.000 A 
ATOM      7  C   UNL     1      22.227  41.157  44.422  0.00  0.00    +0.000 A 
ATOM      8  C   UNL     1      22.098  39.809  44.065  0.00  0.00    +0.000 A 
BRANCH   3   9
ATOM      9  O   UNL     1      18.809  42.347  43.688  0.00  0.00    +0.000 OA
BRANCH   9  12
ATOM     10 BR   UNL     1      16.752  40.105  44.207  0.00  0.00    +0.000 Br
ATOM     11  C   UNL     1      17.142  41.637  45.256  0.00  0.00    +0.000 A 
ATOM     12  C   UNL     1      18.135  42.551  44.882  0.00  0.00    +0.000 A 
ATOM     13  C   UNL     1      16.402  41.837  46.429  0.00  0.00    +0.000 A 
ATOM     14  C   UNL     1      18.430  43.619  45.744  0.00  0.00    +0.000 A 
ATOM     15  C   UNL     1      16.661  42.941  47.242  0.00  0.00    +0.000 A 
ATOM     16  C   UNL     1      17.681  43.826  46.906  0.00  0.00    +0.000 A 
ENDBRANCH   9  12
ENDBRANCH   3   9
ENDBRANCH   1   8
BRANCH   2  17
ATOM     17  N   UNL     1      23.723  39.726  46.736  0.00  0.00    +0.000 N 
ATOM     18  C   UNL     1      24.735  40.667  46.834  0.00  0.00    +0.000 C 
ATOM     19  O   UNL     1      25.712  40.679  46.093  0.00  0.00    +0.000 OA
ATOM     20  H   UNL     1      22.984  39.737  47.387  0.00  0.00    +0.000 HD
BRANCH  18  21
ATOM     21  C   UNL     1      24.679  41.628  47.970  0.00  0.00    +0.000 A 
ATOM     22  C   UNL     1      23.445  41.917  48.609  0.00  0.00    +0.000 A 
ATOM     23  C   UNL     1      25.888  42.120  48.486  0.00  0.00    +0.000 A 
ATOM     24  C   UNL     1      23.485  42.639  49.813  0.00  0.00    +0.000 A 
ATOM     25  C   UNL     1      25.893  42.846  49.676  0.00  0.00    +0.000 A 
ATOM     26  C   UNL     1      24.696  43.089  50.345  0.00  0.00    +0.000 A 
BRANCH  22  27
ATOM     27  C   UNL     1      22.132  41.368  48.076  0.00  0.00    +0.000 C 
ATOM     28  C   UNL     1      21.025  42.360  47.739  0.00  0.00    +0.000 C 
ENDBRANCH  22  27
ENDBRANCH  18  21
ENDBRANCH   2  17
BRANCH   2  29
ATOM     29  C   UNL     1      24.577  37.538  45.934  0.00  0.00    +0.000 C 
ATOM     30  O   UNL     1      25.647  37.312  45.390  0.00  0.00    +0.000 OA
ATOM     31  OXT UNL     1      24.003  36.690  46.820  0.00  0.00    +0.000 OA
ENDBRANCH   2  29
TORSDOF 7
ENDMDL
MODEL 5
REMARK VINA RESULT:      -7.2      2.187      3.842
REMARK  Name = 319952
REMARK  8 active torsions:
REMARK  status: ('A' for Active; 'I' for Inactive)
REMARK    1  A    between atoms: C_3  and  O_5
REMARK    2  A    between atoms: O_5  and  C_8
REMARK    3  A    between atoms: C_14  and  C_15
REMARK    4  A    between atoms: CA_16  and  N_17
REMARK    5  A    between atoms: CA_16  and  C_18
REMARK    6  A    between atoms: C_19  and  C_23
REMARK    7  A    between atoms: C_24  and  C_27
REMARK    8  A    between atoms: C_27  and  C_30
REMARK                            x       y       z     vdW  Elec       q    Type
REMARK                         _______ _______ _______ _____ _____    ______ ____
ROOT
ATOM      1  C   UNL     1      20.861  38.991  44.202  0.00  0.00    +0.000 C 
ATOM      2  CA  UNL     1      19.684  39.641  44.263  0.00  0.00    +0.000 C 
ENDROOT
BRANCH   1   8
ATOM      3  C   UNL     1      24.448  40.191  46.134  0.00  0.00    +0.000 A 
ATOM      4  C   UNL     1      23.706  41.139  45.433  0.00  0.00    +0.000 A 
ATOM      5  C   UNL     1      24.159  38.832  45.987  0.00  0.00    +0.000 A 
ATOM      6  C   UNL     1      22.576  40.737  44.711  0.00  0.00    +0.000 A 
ATOM      7  C   UNL     1      23.025  38.433  45.274  0.00  0.00    +0.000 A 
ATOM      8  C   UNL     1      22.198  39.390  44.671  0.00  0.00    +0.000 A 
BRANCH   3   9
ATOM      9  O   UNL     1      25.436  40.650  46.980  0.00  0.00    +0.000 OA
BRANCH   9  12
ATOM     10 BR   UNL     1      27.871  41.498  48.676  0.00  0.00    +0.000 Br
ATOM     11  C   UNL     1      26.035  41.906  48.930  0.00  0.00    +0.000 A 
ATOM     12  C   UNL     1      25.052  41.455  48.042  0.00  0.00    +0.000 A 
ATOM     13  C   UNL     1      25.681  42.678  50.045  0.00  0.00    +0.000 A 
ATOM     14  C   UNL     1      23.723  41.860  48.242  0.00  0.00    +0.000 A 
ATOM     15  C   UNL     1      24.346  43.017  50.268  0.00  0.00    +0.000 A 
ATOM     16  C   UNL     1      23.369  42.618  49.362  0.00  0.00    +0.000 A 
ENDBRANCH   9  12
ENDBRANCH   3   9
ENDBRANCH   1   8
BRANCH   2  17
ATOM     17  N   UNL     1      19.432  40.822  44.952  0.00  0.00    +0.000 N 
ATOM     18  C   UNL     1      18.884  40.800  46.225  0.00  0.00    +0.000 C 
ATOM     19  O   UNL     1      18.543  39.765  46.788  0.00  0.00    +0.000 OA
ATOM     20  H   UNL     1      19.646  41.686  44.530  0.00  0.00    +0.000 HD
BRANCH  18  21
ATOM     21  C   UNL     1      18.592  42.107  46.876  0.00  0.00    +0.000 A 
ATOM     22  C   UNL     1      17.469  42.876  46.476  0.00  0.00    +0.000 A 
ATOM     23  C   UNL     1      19.362  42.482  47.989  0.00  0.00    +0.000 A 
ATOM     24  C   UNL     1      17.109  43.973  47.276  0.00  0.00    +0.000 A 
ATOM     25  C   UNL     1      18.986  43.585  48.754  0.00  0.00    +0.000 A 
ATOM     26  C   UNL     1      17.853  44.316  48.408  0.00  0.00    +0.000 A 
BRANCH  22  27
ATOM     27  C   UNL     1      16.613  42.465  45.290  0.00  0.00    +0.000 C 
ATOM     28  C   UNL     1      16.889  43.126  43.944  0.00  0.00    +0.000 C 
ENDBRANCH  22  27
ENDBRANCH  18  21
ENDBRANCH   2  17
BRANCH   2  29
ATOM     29  C   UNL     1      18.544  38.984  43.542  0.00  0.00    +0.000 C 
ATOM     30  O   UNL     1      18.274  37.794  43.576  0.00  0.00    +0.000 OA
ATOM     31  OXT UNL     1      17.822  39.887  42.836  0.00  0.00    +0.000 OA
ENDBRANCH   2  29
TORSDOF 7
ENDMDL
MODEL 6
REMARK VINA RESULT:      -6.9      1.038      1.563
REMARK  Name = 319952
REMARK  8 active torsions:
REMARK  status: ('A' for Active; 'I' for Inactive)
REMARK    1  A    between atoms: C_3  and  O_5
REMARK    2  A    between atoms: O_5  and  C_8
REMARK    3  A    between atoms: C_14  and  C_15
REMARK    4  A    between atoms: CA_16  and  N_17
REMARK    5  A    between atoms: CA_16  and  C_18
REMARK    6  A    between atoms: C_19  and  C_23
REMARK    7  A    between atoms: C_24  and  C_27
REMARK    8  A    between atoms: C_27  and  C_30
REMARK                            x       y       z     vdW  Elec       q    Type
REMARK                         _______ _______ _______ _____ _____    ______ ____
ROOT
ATOM      1  C   UNL     1      20.102  42.407  43.422  0.00  0.00    +0.000 C 
ATOM      2  CA  UNL     1      18.859  41.911  43.291  0.00  0.00    +0.000 C 
ENDROOT
BRANCH   1   8
ATOM      3  C   UNL     1      22.550  41.467  46.763  0.00  0.00    +0.000 A 
ATOM      4  C   UNL     1      21.807  42.645  46.778  0.00  0.00    +0.000 A 
ATOM      5  C   UNL     1      22.690  40.746  45.574  0.00  0.00    +0.000 A 
ATOM      6  C   UNL     1      21.074  43.014  45.644  0.00  0.00    +0.000 A 
ATOM      7  C   UNL     1      21.950  41.111  44.446  0.00  0.00    +0.000 A 
ATOM      8  C   UNL     1      21.098  42.222  44.490  0.00  0.00    +0.000 A 
BRANCH   3   9
ATOM      9  O   UNL     1      23.103  41.044  47.953  0.00  0.00    +0.000 OA
BRANCH   9  12
ATOM     10 BR   UNL     1      23.546  42.921  50.363  0.00  0.00    +0.000 Br
ATOM     11  C   UNL     1      24.828  42.145  49.199  0.00  0.00    +0.000 A 
ATOM     12  C   UNL     1      24.453  41.287  48.159  0.00  0.00    +0.000 A 
ATOM     13  C   UNL     1      26.178  42.457  49.406  0.00  0.00    +0.000 A 
ATOM     14  C   UNL     1      25.456  40.682  47.386  0.00  0.00    +0.000 A 
ATOM     15  C   UNL     1      27.161  41.901  48.587  0.00  0.00    +0.000 A 
ATOM     16  C   UNL     1      26.801  41.006  47.584  0.00  0.00    +0.000 A 
ENDBRANCH   9  12
ENDBRANCH   3   9
ENDBRANCH   1   8
BRANCH   2  17
ATOM     17  N   UNL     1      18.270  40.944  44.099  0.00  0.00    +0.000 N 
ATOM     18  C   UNL     1      18.682  39.623  44.042  0.00  0.00    +0.000 C 
ATOM     19  O   UNL     1      19.532  39.220  43.254  0.00  0.00    +0.000 OA
ATOM     20  H   UNL     1      17.551  41.203  44.720  0.00  0.00    +0.000 HD
BRANCH  18  21
ATOM     21  C   UNL     1      17.966  38.637  44.898  0.00  0.00    +0.000 A 
ATOM     22  C   UNL     1      17.279  39.061  46.065  0.00  0.00    +0.000 A 
ATOM     23  C   UNL     1      17.861  37.313  44.442  0.00  0.00    +0.000 A 
ATOM     24  C   UNL     1      16.432  38.136  46.697  0.00  0.00    +0.000 A 
ATOM     25  C   UNL     1      17.022  36.415  45.101  0.00  0.00    +0.000 A 
ATOM     26  C   UNL     1      16.298  36.832  46.215  0.00  0.00    +0.000 A 
BRANCH  22  27
ATOM     27  C   UNL     1      17.364  40.498  46.552  0.00  0.00    +0.000 C 
ATOM     28  C   UNL     1      18.551  40.890  47.424  0.00  0.00    +0.000 C 
ENDBRANCH  22  27
ENDBRANCH  18  21
ENDBRANCH   2  17
BRANCH   2  29
ATOM     29  C   UNL     1      18.069  42.440  42.129  0.00  0.00    +0.000 C 
ATOM     30  O   UNL     1      17.158  41.856  41.565  0.00  0.00    +0.000 OA
ATOM     31  OXT UNL     1      18.489  43.677  41.772  0.00  0.00    +0.000 OA
ENDBRANCH   2  29
TORSDOF 7
ENDMDL
MODEL 7
REMARK VINA RESULT:      -5.7      2.072      2.819
REMARK  Name = 319952
REMARK  8 active torsions:
REMARK  status: ('A' for Active; 'I' for Inactive)
REMARK    1  A    between atoms: C_3  and  O_5
REMARK    2  A    between atoms: O_5  and  C_8
REMARK    3  A    between atoms: C_14  and  C_15
REMARK    4  A    between atoms: CA_16  and  N_17
REMARK    5  A    between atoms: CA_16  and  C_18
REMARK    6  A    between atoms: C_19  and  C_23
REMARK    7  A    between atoms: C_24  and  C_27
REMARK    8  A    between atoms: C_27  and  C_30
REMARK                            x       y       z     vdW  Elec       q    Type
REMARK                         _______ _______ _______ _____ _____    ______ ____
ROOT
ATOM      1  C   UNL     1      18.827  43.709  46.062  0.00  0.00    +0.000 C 
ATOM      2  CA  UNL     1      17.686  43.067  45.753  0.00  0.00    +0.000 C 
ENDROOT
BRANCH   1   8
ATOM      3  C   UNL     1      22.182  41.678  47.692  0.00  0.00    +0.000 A 
ATOM      4  C   UNL     1      21.194  42.153  48.551  0.00  0.00    +0.000 A 
ATOM      5  C   UNL     1      22.200  42.088  46.356  0.00  0.00    +0.000 A 
ATOM      6  C   UNL     1      20.135  42.909  48.036  0.00  0.00    +0.000 A 
ATOM      7  C   UNL     1      21.136  42.834  45.842  0.00  0.00    +0.000 A 
ATOM      8  C   UNL     1      20.071  43.208  46.670  0.00  0.00    +0.000 A 
BRANCH   3   9
ATOM      9  O   UNL     1      23.101  40.787  48.204  0.00  0.00    +0.000 OA
BRANCH   9  12
ATOM     10 BR   UNL     1      23.935  42.768  50.419  0.00  0.00    +0.000 Br
ATOM     11  C   UNL     1      24.980  42.030  49.019  0.00  0.00    +0.000 A 
ATOM     12  C   UNL     1      24.445  41.117  48.104  0.00  0.00    +0.000 A 
ATOM     13  C   UNL     1      26.320  42.429  48.918  0.00  0.00    +0.000 A 
ATOM     14  C   UNL     1      25.293  40.547  47.142  0.00  0.00    +0.000 A 
ATOM     15  C   UNL     1      27.135  41.905  47.914  0.00  0.00    +0.000 A 
ATOM     16  C   UNL     1      26.625  40.956  47.033  0.00  0.00    +0.000 A 
ENDBRANCH   9  12
ENDBRANCH   3   9
ENDBRANCH   1   8
BRANCH   2  17
ATOM     17  N   UNL     1      17.475  41.694  45.801  0.00  0.00    +0.000 N 
ATOM     18  C   UNL     1      17.567  40.919  44.656  0.00  0.00    +0.000 C 
ATOM     19  O   UNL     1      17.778  41.391  43.544  0.00  0.00    +0.000 OA
ATOM     20  H   UNL     1      17.259  41.266  46.661  0.00  0.00    +0.000 HD
BRANCH  18  21
ATOM     21  C   UNL     1      17.274  39.464  44.778  0.00  0.00    +0.000 A 
ATOM     22  C   UNL     1      18.160  38.503  44.225  0.00  0.00    +0.000 A 
ATOM     23  C   UNL     1      16.191  39.069  45.579  0.00  0.00    +0.000 A 
ATOM     24  C   UNL     1      17.962  37.156  44.572  0.00  0.00    +0.000 A 
ATOM     25  C   UNL     1      16.014  37.722  45.893  0.00  0.00    +0.000 A 
ATOM     26  C   UNL     1      16.908  36.772  45.405  0.00  0.00    +0.000 A 
BRANCH  22  27
ATOM     27  C   UNL     1      19.351  38.920  43.380  0.00  0.00    +0.000 C 
ATOM     28  C   UNL     1      20.610  39.390  44.099  0.00  0.00    +0.000 C 
ENDBRANCH  22  27
ENDBRANCH  18  21
ENDBRANCH   2  17
BRANCH   2  29
ATOM     29  C   UNL     1      16.562  43.940  45.274  0.00  0.00    +0.000 C 
ATOM     30  O   UNL     1      16.206  44.066  44.113  0.00  0.00    +0.000 OA
ATOM     31  OXT UNL     1      15.965  44.583  46.306  0.00  0.00    +0.000 OA
ENDBRANCH   2  29
TORSDOF 7
ENDMDL
