MODEL 1
REMARK VINA RESULT:      -9.0      0.000      0.000
REMARK  Name = 323412
REMARK  8 active torsions:
REMARK  status: ('A' for Active; 'I' for Inactive)
REMARK    1  A    between atoms: C_3  and  O_5
REMARK    2  A    between atoms: O_5  and  C_8
REMARK    3  A    between atoms: C_14  and  C_15
REMARK    4  A    between atoms: CA_16  and  N_17
REMARK    5  A    between atoms: CA_16  and  C_18
REMARK    6  A    between atoms: C_19  and  C_23
REMARK    7  A    between atoms: C_23  and  C_24
REMARK    8  A    between atoms: C_24  and  C_25
REMARK                            x       y       z     vdW  Elec       q    Type
REMARK                         _______ _______ _______ _____ _____    ______ ____
ROOT
ATOM      1  C   UNL     1      21.869  41.372  47.040  0.00  0.00    +0.000 A 
ATOM      2  C   UNL     1      20.996  42.451  46.914  0.00  0.00    +0.000 A 
ATOM      3  C   UNL     1      22.156  40.582  45.923  0.00  0.00    +0.000 A 
ATOM      4  C   UNL     1      20.216  42.570  45.757  0.00  0.00    +0.000 A 
ATOM      5  C   UNL     1      21.412  40.730  44.751  0.00  0.00    +0.000 A 
ATOM      6  C   UNL     1      20.377  41.670  44.700  0.00  0.00    +0.000 A 
ENDROOT
BRANCH   6   7
ATOM      7  C   UNL     1      19.339  41.521  43.672  0.00  0.00    +0.000 C 
ATOM      8  CA  UNL     1      18.204  40.803  43.693  0.00  0.00    +0.000 C 
BRANCH   8   9
ATOM      9  N   UNL     1      17.830  39.904  44.670  0.00  0.00    +0.000 N 
ATOM     10  C   UNL     1      17.005  40.194  45.741  0.00  0.00    +0.000 C 
ATOM     11  O   UNL     1      16.564  41.307  46.013  0.00  0.00    +0.000 OA
ATOM     12  H   UNL     1      18.176  38.985  44.599  0.00  0.00    +0.000 HD
BRANCH  10  13
ATOM     13  C   UNL     1      16.714  39.008  46.632  0.00  0.00    +0.000 C 
BRANCH  13  14
ATOM     14  C   UNL     1      16.036  37.901  45.840  0.00  0.00    +0.000 C 
BRANCH  14  15
ATOM     15  C   UNL     1      17.012  36.808  45.504  0.00  0.00    +0.000 C 
ATOM     16  O   UNL     1      17.090  35.754  46.110  0.00  0.00    +0.000 OA
ATOM     17  O   UNL     1      17.788  37.093  44.430  0.00  0.00    +0.000 OA
ENDBRANCH  14  15
ENDBRANCH  13  14
ENDBRANCH  10  13
ENDBRANCH   8   9
BRANCH   8  18
ATOM     18  C   UNL     1      17.229  41.104  42.587  0.00  0.00    +0.000 C 
ATOM     19  O   UNL     1      16.168  40.531  42.402  0.00  0.00    +0.000 OA
ATOM     20  OXT UNL     1      17.661  42.116  41.796  0.00  0.00    +0.000 OA
ENDBRANCH   8  18
ENDBRANCH   6   7
BRANCH   1  21
ATOM     21  O   UNL     1      22.481  40.981  48.202  0.00  0.00    +0.000 OA
BRANCH  21  24
ATOM     22  I   UNL     1      25.565  40.567  46.367  0.00  0.00    +0.000 I 
ATOM     23  C   UNL     1      24.959  41.470  48.178  0.00  0.00    +0.000 A 
ATOM     24  C   UNL     1      23.643  41.569  48.659  0.00  0.00    +0.000 A 
ATOM     25  C   UNL     1      25.998  42.152  48.839  0.00  0.00    +0.000 A 
ATOM     26  C   UNL     1      23.387  42.487  49.694  0.00  0.00    +0.000 A 
ATOM     27  C   UNL     1      25.724  43.029  49.887  0.00  0.00    +0.000 A 
ATOM     28  C   UNL     1      24.411  43.225  50.290  0.00  0.00    +0.000 A 
ENDBRANCH  21  24
ENDBRANCH   1  21
TORSDOF 8
ENDMDL
MODEL 2
REMARK VINA RESULT:      -8.2      3.166      7.272
REMARK  Name = 323412
REMARK  8 active torsions:
REMARK  status: ('A' for Active; 'I' for Inactive)
REMARK    1  A    between atoms: C_3  and  O_5
REMARK    2  A    between atoms: O_5  and  C_8
REMARK    3  A    between atoms: C_14  and  C_15
REMARK    4  A    between atoms: CA_16  and  N_17
REMARK    5  A    between atoms: CA_16  and  C_18
REMARK    6  A    between atoms: C_19  and  C_23
REMARK    7  A    between atoms: C_23  and  C_24
REMARK    8  A    between atoms: C_24  and  C_25
REMARK                            x       y       z     vdW  Elec       q    Type
REMARK                         _______ _______ _______ _____ _____    ______ ____
ROOT
ATOM      1  C   UNL     1      18.891  42.833  46.440  0.00  0.00    +0.000 A 
ATOM      2  C   UNL     1      19.931  43.341  45.664  0.00  0.00    +0.000 A 
ATOM      3  C   UNL     1      19.141  42.439  47.757  0.00  0.00    +0.000 A 
ATOM      4  C   UNL     1      21.250  43.202  46.110  0.00  0.00    +0.000 A 
ATOM      5  C   UNL     1      20.455  42.344  48.223  0.00  0.00    +0.000 A 
ATOM      6  C   UNL     1      21.518  42.642  47.363  0.00  0.00    +0.000 A 
ENDROOT
BRANCH   6   7
ATOM      7  C   UNL     1      22.854  42.128  47.690  0.00  0.00    +0.000 C 
ATOM      8  CA  UNL     1      23.701  41.399  46.946  0.00  0.00    +0.000 C 
BRANCH   8   9
ATOM      9  N   UNL     1      23.423  40.834  45.718  0.00  0.00    +0.000 N 
ATOM     10  C   UNL     1      23.381  39.476  45.461  0.00  0.00    +0.000 C 
ATOM     11  O   UNL     1      23.668  38.596  46.266  0.00  0.00    +0.000 OA
ATOM     12  H   UNL     1      23.240  41.445  44.968  0.00  0.00    +0.000 HD
BRANCH  10  13
ATOM     13  C   UNL     1      23.000  39.131  44.040  0.00  0.00    +0.000 C 
BRANCH  13  14
ATOM     14  C   UNL     1      21.997  40.138  43.499  0.00  0.00    +0.000 C 
BRANCH  14  15
ATOM     15  C   UNL     1      20.597  39.772  43.908  0.00  0.00    +0.000 C 
ATOM     16  O   UNL     1      19.771  39.288  43.154  0.00  0.00    +0.000 OA
ATOM     17  O   UNL     1      20.342  40.005  45.218  0.00  0.00    +0.000 OA
ENDBRANCH  14  15
ENDBRANCH  13  14
ENDBRANCH  10  13
ENDBRANCH   8   9
BRANCH   8  18
ATOM     18  C   UNL     1      25.103  41.291  47.482  0.00  0.00    +0.000 C 
ATOM     19  O   UNL     1      26.069  40.874  46.864  0.00  0.00    +0.000 OA
ATOM     20  OXT UNL     1      25.188  41.724  48.763  0.00  0.00    +0.000 OA
ENDBRANCH   8  18
ENDBRANCH   6   7
BRANCH   1  21
ATOM     21  O   UNL     1      17.601  42.655  46.015  0.00  0.00    +0.000 OA
BRANCH  21  24
ATOM     22  I   UNL     1      16.465  39.334  46.870  0.00  0.00    +0.000 I 
ATOM     23  C   UNL     1      16.901  40.406  45.103  0.00  0.00    +0.000 A 
ATOM     24  C   UNL     1      17.267  41.760  45.020  0.00  0.00    +0.000 A 
ATOM     25  C   UNL     1      16.629  39.682  43.927  0.00  0.00    +0.000 A 
ATOM     26  C   UNL     1      17.187  42.388  43.764  0.00  0.00    +0.000 A 
ATOM     27  C   UNL     1      16.591  40.319  42.688  0.00  0.00    +0.000 A 
ATOM     28  C   UNL     1      16.833  41.683  42.611  0.00  0.00    +0.000 A 
ENDBRANCH  21  24
ENDBRANCH   1  21
TORSDOF 8
ENDMDL
MODEL 3
REMARK VINA RESULT:      -8.0      2.909      7.948
REMARK  Name = 323412
REMARK  8 active torsions:
REMARK  status: ('A' for Active; 'I' for Inactive)
REMARK    1  A    between atoms: C_3  and  O_5
REMARK    2  A    between atoms: O_5  and  C_8
REMARK    3  A    between atoms: C_14  and  C_15
REMARK    4  A    between atoms: CA_16  and  N_17
REMARK    5  A    between atoms: CA_16  and  C_18
REMARK    6  A    between atoms: C_19  and  C_23
REMARK    7  A    between atoms: C_23  and  C_24
REMARK    8  A    between atoms: C_24  and  C_25
REMARK                            x       y       z     vdW  Elec       q    Type
REMARK                         _______ _______ _______ _____ _____    ______ ____
ROOT
ATOM      1  C   UNL     1      19.198  40.733  43.757  0.00  0.00    +0.000 A 
ATOM      2  C   UNL     1      19.833  39.679  43.103  0.00  0.00    +0.000 A 
ATOM      3  C   UNL     1      19.962  41.761  44.315  0.00  0.00    +0.000 A 
ATOM      4  C   UNL     1      21.217  39.521  43.244  0.00  0.00    +0.000 A 
ATOM      5  C   UNL     1      21.349  41.628  44.415  0.00  0.00    +0.000 A 
ATOM      6  C   UNL     1      21.968  40.460  43.956  0.00  0.00    +0.000 A 
ENDROOT
BRANCH   6   7
ATOM      7  C   UNL     1      23.311  40.133  44.451  0.00  0.00    +0.000 C 
ATOM      8  CA  UNL     1      23.930  40.519  45.578  0.00  0.00    +0.000 C 
BRANCH   8   9
ATOM      9  N   UNL     1      23.469  41.459  46.477  0.00  0.00    +0.000 N 
ATOM     10  C   UNL     1      23.014  41.181  47.753  0.00  0.00    +0.000 C 
ATOM     11  O   UNL     1      22.880  40.057  48.225  0.00  0.00    +0.000 OA
ATOM     12  H   UNL     1      23.465  42.401  46.188  0.00  0.00    +0.000 HD
BRANCH  10  13
ATOM     13  C   UNL     1      22.617  42.406  48.544  0.00  0.00    +0.000 C 
BRANCH  13  14
ATOM     14  C   UNL     1      23.473  42.531  49.795  0.00  0.00    +0.000 C 
BRANCH  14  15
ATOM     15  C   UNL     1      24.921  42.725  49.437  0.00  0.00    +0.000 C 
ATOM     16  O   UNL     1      25.363  42.619  48.307  0.00  0.00    +0.000 OA
ATOM     17  O   UNL     1      25.694  43.063  50.496  0.00  0.00    +0.000 OA
ENDBRANCH  14  15
ENDBRANCH  13  14
ENDBRANCH  10  13
ENDBRANCH   8   9
BRANCH   8  18
ATOM     18  C   UNL     1      25.191  39.768  45.913  0.00  0.00    +0.000 C 
ATOM     19  O   UNL     1      26.276  40.273  46.151  0.00  0.00    +0.000 OA
ATOM     20  OXT UNL     1      24.989  38.428  45.931  0.00  0.00    +0.000 OA
ENDBRANCH   8  18
ENDBRANCH   6   7
BRANCH   1  21
ATOM     21  O   UNL     1      17.844  40.855  43.932  0.00  0.00    +0.000 OA
BRANCH  21  24
ATOM     22  I   UNL     1      16.984  43.047  46.671  0.00  0.00    +0.000 I 
ATOM     23  C   UNL     1      16.851  40.982  46.251  0.00  0.00    +0.000 A 
ATOM     24  C   UNL     1      17.194  40.354  45.042  0.00  0.00    +0.000 A 
ATOM     25  C   UNL     1      16.204  40.244  47.261  0.00  0.00    +0.000 A 
ATOM     26  C   UNL     1      16.728  39.045  44.822  0.00  0.00    +0.000 A 
ATOM     27  C   UNL     1      15.783  38.936  47.034  0.00  0.00    +0.000 A 
ATOM     28  C   UNL     1      16.012  38.348  45.798  0.00  0.00    +0.000 A 
ENDBRANCH  21  24
ENDBRANCH   1  21
TORSDOF 8
ENDMDL
MODEL 4
REMARK VINA RESULT:      -7.9      3.014      7.347
REMARK  Name = 323412
REMARK  8 active torsions:
REMARK  status: ('A' for Active; 'I' for Inactive)
REMARK    1  A    between atoms: C_3  and  O_5
REMARK    2  A    between atoms: O_5  and  C_8
REMARK    3  A    between atoms: C_14  and  C_15
REMARK    4  A    between atoms: CA_16  and  N_17
REMARK    5  A    between atoms: CA_16  and  C_18
REMARK    6  A    between atoms: C_19  and  C_23
REMARK    7  A    between atoms: C_23  and  C_24
REMARK    8  A    between atoms: C_24  and  C_25
REMARK                            x       y       z     vdW  Elec       q    Type
REMARK                         _______ _______ _______ _____ _____    ______ ____
ROOT
ATOM      1  C   UNL     1      18.606  42.389  46.722  0.00  0.00    +0.000 A 
ATOM      2  C   UNL     1      19.670  42.428  45.824  0.00  0.00    +0.000 A 
ATOM      3  C   UNL     1      18.827  42.693  48.068  0.00  0.00    +0.000 A 
ATOM      4  C   UNL     1      20.979  42.503  46.314  0.00  0.00    +0.000 A 
ATOM      5  C   UNL     1      20.131  42.815  48.553  0.00  0.00    +0.000 A 
ATOM      6  C   UNL     1      21.214  42.630  47.687  0.00  0.00    +0.000 A 
ENDROOT
BRANCH   6   7
ATOM      7  C   UNL     1      22.530  42.320  48.259  0.00  0.00    +0.000 C 
ATOM      8  CA  UNL     1      23.558  41.636  47.731  0.00  0.00    +0.000 C 
BRANCH   8   9
ATOM      9  N   UNL     1      23.540  40.928  46.547  0.00  0.00    +0.000 N 
ATOM     10  C   UNL     1      23.444  39.552  46.446  0.00  0.00    +0.000 C 
ATOM     11  O   UNL     1      23.447  38.773  47.393  0.00  0.00    +0.000 OA
ATOM     12  H   UNL     1      23.599  41.442  45.709  0.00  0.00    +0.000 HD
BRANCH  10  13
ATOM     13  C   UNL     1      23.392  39.042  45.024  0.00  0.00    +0.000 C 
BRANCH  13  14
ATOM     14  C   UNL     1      23.059  40.175  44.065  0.00  0.00    +0.000 C 
BRANCH  14  15
ATOM     15  C   UNL     1      21.619  40.108  43.637  0.00  0.00    +0.000 C 
ATOM     16  O   UNL     1      20.876  39.176  43.887  0.00  0.00    +0.000 OA
ATOM     17  O   UNL     1      21.208  41.210  42.963  0.00  0.00    +0.000 OA
ENDBRANCH  14  15
ENDBRANCH  13  14
ENDBRANCH  10  13
ENDBRANCH   8   9
BRANCH   8  18
ATOM     18  C   UNL     1      24.862  41.753  48.474  0.00  0.00    +0.000 C 
ATOM     19  O   UNL     1      25.925  41.270  48.121  0.00  0.00    +0.000 OA
ATOM     20  OXT UNL     1      24.731  42.481  49.609  0.00  0.00    +0.000 OA
ENDBRANCH   8  18
ENDBRANCH   6   7
BRANCH   1  21
ATOM     21  O   UNL     1      17.317  42.049  46.407  0.00  0.00    +0.000 OA
BRANCH  21  24
ATOM     22  I   UNL     1      17.474  41.054  42.938  0.00  0.00    +0.000 I 
ATOM     23  C   UNL     1      16.847  40.192  44.761  0.00  0.00    +0.000 A 
ATOM     24  C   UNL     1      16.960  40.769  46.037  0.00  0.00    +0.000 A 
ATOM     25  C   UNL     1      16.432  38.852  44.634  0.00  0.00    +0.000 A 
ATOM     26  C   UNL     1      16.810  39.929  47.156  0.00  0.00    +0.000 A 
ATOM     27  C   UNL     1      16.255  38.049  45.759  0.00  0.00    +0.000 A 
ATOM     28  C   UNL     1      16.481  38.579  47.021  0.00  0.00    +0.000 A 
ENDBRANCH  21  24
ENDBRANCH   1  21
TORSDOF 8
ENDMDL
MODEL 5
REMARK VINA RESULT:      -7.9      3.190      7.634
REMARK  Name = 323412
REMARK  8 active torsions:
REMARK  status: ('A' for Active; 'I' for Inactive)
REMARK    1  A    between atoms: C_3  and  O_5
REMARK    2  A    between atoms: O_5  and  C_8
REMARK    3  A    between atoms: C_14  and  C_15
REMARK    4  A    between atoms: CA_16  and  N_17
REMARK    5  A    between atoms: CA_16  and  C_18
REMARK    6  A    between atoms: C_19  and  C_23
REMARK    7  A    between atoms: C_23  and  C_24
REMARK    8  A    between atoms: C_24  and  C_25
REMARK                            x       y       z     vdW  Elec       q    Type
REMARK                         _______ _______ _______ _____ _____    ______ ____
ROOT
ATOM      1  C   UNL     1      20.101  41.166  45.625  0.00  0.00    +0.000 A 
ATOM      2  C   UNL     1      20.834  42.272  45.199  0.00  0.00    +0.000 A 
ATOM      3  C   UNL     1      20.193  40.747  46.955  0.00  0.00    +0.000 A 
ATOM      4  C   UNL     1      21.847  42.780  46.021  0.00  0.00    +0.000 A 
ATOM      5  C   UNL     1      21.172  41.285  47.793  0.00  0.00    +0.000 A 
ATOM      6  C   UNL     1      22.061  42.244  47.294  0.00  0.00    +0.000 A 
ENDROOT
BRANCH   6   7
ATOM      7  C   UNL     1      23.326  42.469  48.005  0.00  0.00    +0.000 C 
ATOM      8  CA  UNL     1      24.528  41.899  47.824  0.00  0.00    +0.000 C 
BRANCH   8   9
ATOM      9  N   UNL     1      24.805  40.834  46.993  0.00  0.00    +0.000 N 
ATOM     10  C   UNL     1      24.325  39.548  47.165  0.00  0.00    +0.000 C 
ATOM     11  O   UNL     1      23.660  39.164  48.122  0.00  0.00    +0.000 OA
ATOM     12  H   UNL     1      25.387  41.001  46.217  0.00  0.00    +0.000 HD
BRANCH  10  13
ATOM     13  C   UNL     1      24.741  38.586  46.076  0.00  0.00    +0.000 C 
BRANCH  13  14
ATOM     14  C   UNL     1      23.539  38.180  45.237  0.00  0.00    +0.000 C 
BRANCH  14  15
ATOM     15  C   UNL     1      23.081  39.321  44.371  0.00  0.00    +0.000 C 
ATOM     16  O   UNL     1      23.688  40.370  44.248  0.00  0.00    +0.000 OA
ATOM     17  O   UNL     1      21.930  39.060  43.705  0.00  0.00    +0.000 OA
ENDBRANCH  14  15
ENDBRANCH  13  14
ENDBRANCH  10  13
ENDBRANCH   8   9
BRANCH   8  18
ATOM     18  C   UNL     1      25.674  42.571  48.532  0.00  0.00    +0.000 C 
ATOM     19  O   UNL     1      25.735  42.797  49.729  0.00  0.00    +0.000 OA
ATOM     20  OXT UNL     1      26.669  42.904  47.674  0.00  0.00    +0.000 OA
ENDBRANCH   8  18
ENDBRANCH   6   7
BRANCH   1  21
ATOM     21  O   UNL     1      19.282  40.407  44.831  0.00  0.00    +0.000 OA
BRANCH  21  24
ATOM     22  I   UNL     1      16.719  42.357  46.467  0.00  0.00    +0.000 I 
ATOM     23  C   UNL     1      17.078  40.316  46.062  0.00  0.00    +0.000 A 
ATOM     24  C   UNL     1      18.147  39.791  45.316  0.00  0.00    +0.000 A 
ATOM     25  C   UNL     1      16.030  39.470  46.471  0.00  0.00    +0.000 A 
ATOM     26  C   UNL     1      18.044  38.463  44.862  0.00  0.00    +0.000 A 
ATOM     27  C   UNL     1      15.968  38.147  46.039  0.00  0.00    +0.000 A 
ATOM     28  C   UNL     1      16.959  37.653  45.202  0.00  0.00    +0.000 A 
ENDBRANCH  21  24
ENDBRANCH   1  21
TORSDOF 8
ENDMDL
MODEL 6
REMARK VINA RESULT:      -7.7      3.069      7.280
REMARK  Name = 323412
REMARK  8 active torsions:
REMARK  status: ('A' for Active; 'I' for Inactive)
REMARK    1  A    between atoms: C_3  and  O_5
REMARK    2  A    between atoms: O_5  and  C_8
REMARK    3  A    between atoms: C_14  and  C_15
REMARK    4  A    between atoms: CA_16  and  N_17
REMARK    5  A    between atoms: CA_16  and  C_18
REMARK    6  A    between atoms: C_19  and  C_23
REMARK    7  A    between atoms: C_23  and  C_24
REMARK    8  A    between atoms: C_24  and  C_25
REMARK                            x       y       z     vdW  Elec       q    Type
REMARK                         _______ _______ _______ _____ _____    ______ ____
ROOT
ATOM      1  C   UNL     1      19.818  39.725  43.554  0.00  0.00    +0.000 A 
ATOM      2  C   UNL     1      20.697  38.654  43.705  0.00  0.00    +0.000 A 
ATOM      3  C   UNL     1      20.322  41.026  43.478  0.00  0.00    +0.000 A 
ATOM      4  C   UNL     1      22.032  38.906  44.046  0.00  0.00    +0.000 A 
ATOM      5  C   UNL     1      21.664  41.277  43.773  0.00  0.00    +0.000 A 
ATOM      6  C   UNL     1      22.501  40.219  44.145  0.00  0.00    +0.000 A 
ENDROOT
BRANCH   6   7
ATOM      7  C   UNL     1      23.743  40.524  44.866  0.00  0.00    +0.000 C 
ATOM      8  CA  UNL     1      23.931  41.212  46.004  0.00  0.00    +0.000 C 
BRANCH   8   9
ATOM      9  N   UNL     1      22.971  41.930  46.686  0.00  0.00    +0.000 N 
ATOM     10  C   UNL     1      21.947  41.376  47.432  0.00  0.00    +0.000 C 
ATOM     11  O   UNL     1      21.705  40.177  47.519  0.00  0.00    +0.000 OA
ATOM     12  H   UNL     1      23.019  42.913  46.639  0.00  0.00    +0.000 HD
BRANCH  10  13
ATOM     13  C   UNL     1      21.066  42.395  48.120  0.00  0.00    +0.000 C 
BRANCH  13  14
ATOM     14  C   UNL     1      19.799  42.632  47.314  0.00  0.00    +0.000 C 
BRANCH  14  15
ATOM     15  C   UNL     1      18.756  43.324  48.147  0.00  0.00    +0.000 C 
ATOM     16  O   UNL     1      17.794  43.913  47.685  0.00  0.00    +0.000 OA
ATOM     17  O   UNL     1      18.969  43.206  49.480  0.00  0.00    +0.000 OA
ENDBRANCH  14  15
ENDBRANCH  13  14
ENDBRANCH  10  13
ENDBRANCH   8   9
BRANCH   8  18
ATOM     18  C   UNL     1      25.300  41.086  46.617  0.00  0.00    +0.000 C 
ATOM     19  O   UNL     1      26.123  40.227  46.345  0.00  0.00    +0.000 OA
ATOM     20  OXT UNL     1      25.536  42.062  47.527  0.00  0.00    +0.000 OA
ENDBRANCH   8  18
ENDBRANCH   6   7
BRANCH   1  21
ATOM     21  O   UNL     1      18.453  39.625  43.492  0.00  0.00    +0.000 OA
BRANCH  21  24
ATOM     22  I   UNL     1      17.027  42.770  44.551  0.00  0.00    +0.000 I 
ATOM     23  C   UNL     1      17.081  40.784  45.267  0.00  0.00    +0.000 A 
ATOM     24  C   UNL     1      17.656  39.680  44.617  0.00  0.00    +0.000 A 
ATOM     25  C   UNL     1      16.316  40.587  46.433  0.00  0.00    +0.000 A 
ATOM     26  C   UNL     1      17.306  38.394  45.066  0.00  0.00    +0.000 A 
ATOM     27  C   UNL     1      16.012  39.304  46.881  0.00  0.00    +0.000 A 
ATOM     28  C   UNL     1      16.477  38.204  46.174  0.00  0.00    +0.000 A 
ENDBRANCH  21  24
ENDBRANCH   1  21
TORSDOF 8
ENDMDL
MODEL 7
REMARK VINA RESULT:      -7.5      3.194      6.967
REMARK  Name = 323412
REMARK  8 active torsions:
REMARK  status: ('A' for Active; 'I' for Inactive)
REMARK    1  A    between atoms: C_3  and  O_5
REMARK    2  A    between atoms: O_5  and  C_8
REMARK    3  A    between atoms: C_14  and  C_15
REMARK    4  A    between atoms: CA_16  and  N_17
REMARK    5  A    between atoms: CA_16  and  C_18
REMARK    6  A    between atoms: C_19  and  C_23
REMARK    7  A    between atoms: C_23  and  C_24
REMARK    8  A    between atoms: C_24  and  C_25
REMARK                            x       y       z     vdW  Elec       q    Type
REMARK                         _______ _______ _______ _____ _____    ______ ____
ROOT
ATOM      1  C   UNL     1      18.817  40.515  43.529  0.00  0.00    +0.000 A 
ATOM      2  C   UNL     1      19.082  39.151  43.631  0.00  0.00    +0.000 A 
ATOM      3  C   UNL     1      19.867  41.408  43.303  0.00  0.00    +0.000 A 
ATOM      4  C   UNL     1      20.406  38.719  43.775  0.00  0.00    +0.000 A 
ATOM      5  C   UNL     1      21.190  40.972  43.399  0.00  0.00    +0.000 A 
ATOM      6  C   UNL     1      21.459  39.638  43.725  0.00  0.00    +0.000 A 
ENDROOT
BRANCH   6   7
ATOM      7  C   UNL     1      22.785  39.295  44.254  0.00  0.00    +0.000 C 
ATOM      8  CA  UNL     1      23.430  39.766  45.332  0.00  0.00    +0.000 C 
BRANCH   8   9
ATOM      9  N   UNL     1      23.025  40.822  46.123  0.00  0.00    +0.000 N 
ATOM     10  C   UNL     1      22.950  40.796  47.504  0.00  0.00    +0.000 C 
ATOM     11  O   UNL     1      23.151  39.809  48.204  0.00  0.00    +0.000 OA
ATOM     12  H   UNL     1      22.771  41.659  45.670  0.00  0.00    +0.000 HD
BRANCH  10  13
ATOM     13  C   UNL     1      22.526  42.109  48.121  0.00  0.00    +0.000 C 
BRANCH  13  14
ATOM     14  C   UNL     1      21.422  42.752  47.296  0.00  0.00    +0.000 C 
BRANCH  14  15
ATOM     15  C   UNL     1      20.122  42.017  47.474  0.00  0.00    +0.000 C 
ATOM     16  O   UNL     1      19.840  40.983  46.894  0.00  0.00    +0.000 OA
ATOM     17  O   UNL     1      19.294  42.601  48.373  0.00  0.00    +0.000 OA
ENDBRANCH  14  15
ENDBRANCH  13  14
ENDBRANCH  10  13
ENDBRANCH   8   9
BRANCH   8  18
ATOM     18  C   UNL     1      24.649  38.989  45.748  0.00  0.00    +0.000 C 
ATOM     19  O   UNL     1      24.698  37.781  45.915  0.00  0.00    +0.000 OA
ATOM     20  OXT UNL     1      25.726  39.794  45.918  0.00  0.00    +0.000 OA
ENDBRANCH   8  18
ENDBRANCH   6   7
BRANCH   1  21
ATOM     21  O   UNL     1      17.580  41.091  43.655  0.00  0.00    +0.000 OA
BRANCH  21  24
ATOM     22  I   UNL     1      16.557  39.134  46.514  0.00  0.00    +0.000 I 
ATOM     23  C   UNL     1      16.646  41.181  46.000  0.00  0.00    +0.000 A 
ATOM     24  C   UNL     1      17.172  41.719  44.814  0.00  0.00    +0.000 A 
ATOM     25  C   UNL     1      16.271  42.039  47.051  0.00  0.00    +0.000 A 
ATOM     26  C   UNL     1      17.460  43.096  44.786  0.00  0.00    +0.000 A 
ATOM     27  C   UNL     1      16.532  43.406  46.986  0.00  0.00    +0.000 A 
ATOM     28  C   UNL     1      17.163  43.930  45.866  0.00  0.00    +0.000 A 
ENDBRANCH  21  24
ENDBRANCH   1  21
TORSDOF 8
ENDMDL
MODEL 8
REMARK VINA RESULT:      -7.4      3.066      7.423
REMARK  Name = 323412
REMARK  8 active torsions:
REMARK  status: ('A' for Active; 'I' for Inactive)
REMARK    1  A    between atoms: C_3  and  O_5
REMARK    2  A    between atoms: O_5  and  C_8
REMARK    3  A    between atoms: C_14  and  C_15
REMARK    4  A    between atoms: CA_16  and  N_17
REMARK    5  A    between atoms: CA_16  and  C_18
REMARK    6  A    between atoms: C_19  and  C_23
REMARK    7  A    between atoms: C_23  and  C_24
REMARK    8  A    between atoms: C_24  and  C_25
REMARK                            x       y       z     vdW  Elec       q    Type
REMARK                         _______ _______ _______ _____ _____    ______ ____
ROOT
ATOM      1  C   UNL     1      18.939  40.777  43.536  0.00  0.00    +0.000 A 
ATOM      2  C   UNL     1      19.207  39.410  43.517  0.00  0.00    +0.000 A 
ATOM      3  C   UNL     1      19.992  41.689  43.430  0.00  0.00    +0.000 A 
ATOM      4  C   UNL     1      20.528  38.968  43.663  0.00  0.00    +0.000 A 
ATOM      5  C   UNL     1      21.313  41.248  43.528  0.00  0.00    +0.000 A 
ATOM      6  C   UNL     1      21.577  39.889  43.735  0.00  0.00    +0.000 A 
ENDROOT
BRANCH   6   7
ATOM      7  C   UNL     1      22.887  39.500  44.272  0.00  0.00    +0.000 C 
ATOM      8  CA  UNL     1      23.560  39.978  45.330  0.00  0.00    +0.000 C 
BRANCH   8   9
ATOM      9  N   UNL     1      23.213  41.082  46.082  0.00  0.00    +0.000 N 
ATOM     10  C   UNL     1      22.307  41.076  47.128  0.00  0.00    +0.000 C 
ATOM     11  O   UNL     1      21.631  40.111  47.471  0.00  0.00    +0.000 OA
ATOM     12  H   UNL     1      23.643  41.938  45.858  0.00  0.00    +0.000 HD
BRANCH  10  13
ATOM     13  C   UNL     1      22.153  42.413  47.815  0.00  0.00    +0.000 C 
BRANCH  13  14
ATOM     14  C   UNL     1      22.670  42.340  49.243  0.00  0.00    +0.000 C 
BRANCH  14  15
ATOM     15  C   UNL     1      24.159  42.551  49.285  0.00  0.00    +0.000 C 
ATOM     16  O   UNL     1      24.937  42.085  48.472  0.00  0.00    +0.000 OA
ATOM     17  O   UNL     1      24.559  43.343  50.309  0.00  0.00    +0.000 OA
ENDBRANCH  14  15
ENDBRANCH  13  14
ENDBRANCH  10  13
ENDBRANCH   8   9
BRANCH   8  18
ATOM     18  C   UNL     1      24.741  39.156  45.771  0.00  0.00    +0.000 C 
ATOM     19  O   UNL     1      24.764  37.940  45.864  0.00  0.00    +0.000 OA
ATOM     20  OXT UNL     1      25.815  39.931  46.057  0.00  0.00    +0.000 OA
ENDBRANCH   8  18
ENDBRANCH   6   7
BRANCH   1  21
ATOM     21  O   UNL     1      17.696  41.337  43.676  0.00  0.00    +0.000 OA
BRANCH  21  24
ATOM     22  I   UNL     1      16.665  39.186  46.388  0.00  0.00    +0.000 I 
ATOM     23  C   UNL     1      16.727  41.262  46.007  0.00  0.00    +0.000 A 
ATOM     24  C   UNL     1      17.261  41.883  44.866  0.00  0.00    +0.000 A 
ATOM     25  C   UNL     1      16.323  42.046  47.105  0.00  0.00    +0.000 A 
ATOM     26  C   UNL     1      17.526  43.264  44.930  0.00  0.00    +0.000 A 
ATOM     27  C   UNL     1      16.562  43.418  47.131  0.00  0.00    +0.000 A 
ATOM     28  C   UNL     1      17.200  44.022  46.056  0.00  0.00    +0.000 A 
ENDBRANCH  21  24
ENDBRANCH   1  21
TORSDOF 8
ENDMDL
MODEL 9
REMARK VINA RESULT:      -6.7      2.928      7.078
REMARK  Name = 323412
REMARK  8 active torsions:
REMARK  status: ('A' for Active; 'I' for Inactive)
REMARK    1  A    between atoms: C_3  and  O_5
REMARK    2  A    between atoms: O_5  and  C_8
REMARK    3  A    between atoms: C_14  and  C_15
REMARK    4  A    between atoms: CA_16  and  N_17
REMARK    5  A    between atoms: CA_16  and  C_18
REMARK    6  A    between atoms: C_19  and  C_23
REMARK    7  A    between atoms: C_23  and  C_24
REMARK    8  A    between atoms: C_24  and  C_25
REMARK                            x       y       z     vdW  Elec       q    Type
REMARK                         _______ _______ _______ _____ _____    ______ ____
ROOT
ATOM      1  C   UNL     1      20.720  39.439  43.562  0.00  0.00    +0.000 A 
ATOM      2  C   UNL     1      21.725  38.577  43.996  0.00  0.00    +0.000 A 
ATOM      3  C   UNL     1      20.925  40.821  43.613  0.00  0.00    +0.000 A 
ATOM      4  C   UNL     1      22.806  39.094  44.719  0.00  0.00    +0.000 A 
ATOM      5  C   UNL     1      22.028  41.340  44.294  0.00  0.00    +0.000 A 
ATOM      6  C   UNL     1      22.925  40.472  44.927  0.00  0.00    +0.000 A 
ENDROOT
BRANCH   6   7
ATOM      7  C   UNL     1      23.794  41.003  45.983  0.00  0.00    +0.000 C 
ATOM      8  CA  UNL     1      23.477  41.507  47.186  0.00  0.00    +0.000 C 
BRANCH   8   9
ATOM      9  N   UNL     1      22.203  41.774  47.644  0.00  0.00    +0.000 N 
ATOM     10  C   UNL     1      21.337  42.698  47.087  0.00  0.00    +0.000 C 
ATOM     11  O   UNL     1      21.615  43.460  46.166  0.00  0.00    +0.000 OA
ATOM     12  H   UNL     1      21.886  41.269  48.427  0.00  0.00    +0.000 HD
BRANCH  10  13
ATOM     13  C   UNL     1      19.982  42.751  47.755  0.00  0.00    +0.000 C 
BRANCH  13  14
ATOM     14  C   UNL     1      18.943  42.037  46.906  0.00  0.00    +0.000 C 
BRANCH  14  15
ATOM     15  C   UNL     1      18.975  40.554  47.153  0.00  0.00    +0.000 C 
ATOM     16  O   UNL     1      19.908  39.832  46.849  0.00  0.00    +0.000 OA
ATOM     17  O   UNL     1      17.868  40.091  47.783  0.00  0.00    +0.000 OA
ENDBRANCH  14  15
ENDBRANCH  13  14
ENDBRANCH  10  13
ENDBRANCH   8   9
BRANCH   8  18
ATOM     18  C   UNL     1      24.631  41.692  48.134  0.00  0.00    +0.000 C 
ATOM     19  O   UNL     1      25.797  41.425  47.894  0.00  0.00    +0.000 OA
ATOM     20  OXT UNL     1      24.230  42.210  49.321  0.00  0.00    +0.000 OA
ENDBRANCH   8  18
ENDBRANCH   6   7
BRANCH   1  21
ATOM     21  O   UNL     1      19.493  39.051  43.091  0.00  0.00    +0.000 OA
BRANCH  21  24
ATOM     22  I   UNL     1      16.998  41.649  43.359  0.00  0.00    +0.000 I 
ATOM     23  C   UNL     1      17.373  39.775  44.257  0.00  0.00    +0.000 A 
ATOM     24  C   UNL     1      18.403  38.881  43.920  0.00  0.00    +0.000 A 
ATOM     25  C   UNL     1      16.369  39.375  45.160  0.00  0.00    +0.000 A 
ATOM     26  C   UNL     1      18.300  37.554  44.374  0.00  0.00    +0.000 A 
ATOM     27  C   UNL     1      16.308  38.064  45.626  0.00  0.00    +0.000 A 
ATOM     28  C   UNL     1      17.254  37.141  45.202  0.00  0.00    +0.000 A 
ENDBRANCH  21  24
ENDBRANCH   1  21
TORSDOF 8
ENDMDL
