MODEL 1
REMARK VINA RESULT:      -3.6      0.000      0.000
REMARK  Name = 323032
REMARK  6 active torsions:
REMARK  status: ('A' for Active; 'I' for Inactive)
REMARK    1  A    between atoms: C_3  and  O_5
REMARK    2  A    between atoms: O_5  and  C_8
REMARK    3  A    between atoms: C_14  and  C_15
REMARK    4  A    between atoms: CA_16  and  N_17
REMARK    5  A    between atoms: CA_16  and  C_18
REMARK    6  A    between atoms: C_19  and  C_23
REMARK                            x       y       z     vdW  Elec       q    Type
REMARK                         _______ _______ _______ _____ _____    ______ ____
ROOT
ATOM      1  C   UNL     1      20.511  42.554  43.352  0.00  0.00    +0.000 C 
ATOM      2  CA  UNL     1      19.247  42.156  43.145  0.00  0.00    +0.000 C 
ENDROOT
BRANCH   1   8
ATOM      3  C   UNL     1      22.621  41.288  46.793  0.00  0.00    +0.000 A 
ATOM      4  C   UNL     1      22.127  42.589  46.737  0.00  0.00    +0.000 A 
ATOM      5  C   UNL     1      22.654  40.500  45.638  0.00  0.00    +0.000 A 
ATOM      6  C   UNL     1      21.519  43.048  45.567  0.00  0.00    +0.000 A 
ATOM      7  C   UNL     1      22.028  40.950  44.476  0.00  0.00    +0.000 A 
ATOM      8  C   UNL     1      21.413  42.209  44.454  0.00  0.00    +0.000 A 
BRANCH   3   9
ATOM      9  O   UNL     1      23.036  40.814  48.020  0.00  0.00    +0.000 OA
BRANCH   9  12
ATOM     10 BR   UNL     1      25.858  40.732  46.778  0.00  0.00    +0.000 Br
ATOM     11  C   UNL     1      25.263  41.639  48.336  0.00  0.00    +0.000 A 
ATOM     12  C   UNL     1      23.925  41.595  48.742  0.00  0.00    +0.000 A 
ATOM     13  C   UNL     1      26.205  42.365  49.074  0.00  0.00    +0.000 A 
ATOM     14  C   UNL     1      23.532  42.362  49.851  0.00  0.00    +0.000 A 
ATOM     15  C   UNL     1      25.810  43.065  50.220  0.00  0.00    +0.000 A 
ATOM     16  C   UNL     1      24.473  43.074  50.598  0.00  0.00    +0.000 A 
ENDBRANCH   9  12
ENDBRANCH   3   9
ENDBRANCH   1   8
BRANCH   2  17
ATOM     17  N   UNL     1      18.551  41.214  43.879  0.00  0.00    +0.000 N 
ATOM     18  C   UNL     1      17.948  41.457  45.106  0.00  0.00    +0.000 C 
ATOM     19  O   UNL     1      18.047  42.520  45.710  0.00  0.00    +0.000 OA
ATOM     20  H   UNL     1      18.478  40.306  43.506  0.00  0.00    +0.000 HD
BRANCH  18  21
ATOM     21  C   UNL     1      17.255  40.227  45.721  0.00  0.00    +0.000 C 
ATOM     22  C   UNL     1      18.264  39.425  46.584  0.00  0.00    +0.000 C 
ATOM     23  C   UNL     1      16.676  39.336  44.598  0.00  0.00    +0.000 C 
ATOM     24  C   UNL     1      16.079  40.640  46.644  0.00  0.00    +0.000 C 
ATOM     25  C   UNL     1      17.601  38.169  47.162  0.00  0.00    +0.000 C 
ATOM     26  C   UNL     1      16.022  38.080  45.195  0.00  0.00    +0.000 C 
ATOM     27  C   UNL     1      15.406  39.393  47.255  0.00  0.00    +0.000 C 
ATOM     28  C   UNL     1      17.078  37.305  46.002  0.00  0.00    +0.000 C 
ATOM     29  C   UNL     1      16.437  38.594  48.068  0.00  0.00    +0.000 C 
ATOM     30  C   UNL     1      14.871  38.497  46.126  0.00  0.00    +0.000 C 
ENDBRANCH  18  21
ENDBRANCH   2  17
BRANCH   2  31
ATOM     31  C   UNL     1      18.498  42.885  42.067  0.00  0.00    +0.000 C 
ATOM     32  O   UNL     1      18.736  44.017  41.681  0.00  0.00    +0.000 OA
ATOM     33  OXT UNL     1      17.485  42.131  41.581  0.00  0.00    +0.000 OA
ENDBRANCH   2  31
TORSDOF 6
ENDMDL
MODEL 2
REMARK VINA RESULT:      -3.5      0.049      1.337
REMARK  Name = 323032
REMARK  6 active torsions:
REMARK  status: ('A' for Active; 'I' for Inactive)
REMARK    1  A    between atoms: C_3  and  O_5
REMARK    2  A    between atoms: O_5  and  C_8
REMARK    3  A    between atoms: C_14  and  C_15
REMARK    4  A    between atoms: CA_16  and  N_17
REMARK    5  A    between atoms: CA_16  and  C_18
REMARK    6  A    between atoms: C_19  and  C_23
REMARK                            x       y       z     vdW  Elec       q    Type
REMARK                         _______ _______ _______ _____ _____    ______ ____
ROOT
ATOM      1  C   UNL     1      20.503  42.549  43.370  0.00  0.00    +0.000 C 
ATOM      2  CA  UNL     1      19.246  42.131  43.160  0.00  0.00    +0.000 C 
ENDROOT
BRANCH   1   8
ATOM      3  C   UNL     1      22.629  41.301  46.809  0.00  0.00    +0.000 A 
ATOM      4  C   UNL     1      22.099  42.588  46.766  0.00  0.00    +0.000 A 
ATOM      5  C   UNL     1      22.691  40.528  45.645  0.00  0.00    +0.000 A 
ATOM      6  C   UNL     1      21.484  43.044  45.597  0.00  0.00    +0.000 A 
ATOM      7  C   UNL     1      22.059  40.974  44.484  0.00  0.00    +0.000 A 
ATOM      8  C   UNL     1      21.408  42.216  44.474  0.00  0.00    +0.000 A 
BRANCH   3   9
ATOM      9  O   UNL     1      23.050  40.824  48.032  0.00  0.00    +0.000 OA
BRANCH   9  12
ATOM     10 BR   UNL     1      25.868  40.751  46.783  0.00  0.00    +0.000 Br
ATOM     11  C   UNL     1      25.276  41.653  48.344  0.00  0.00    +0.000 A 
ATOM     12  C   UNL     1      23.940  41.605  48.754  0.00  0.00    +0.000 A 
ATOM     13  C   UNL     1      26.218  42.379  49.081  0.00  0.00    +0.000 A 
ATOM     14  C   UNL     1      23.548  42.369  49.866  0.00  0.00    +0.000 A 
ATOM     15  C   UNL     1      25.825  43.076  50.230  0.00  0.00    +0.000 A 
ATOM     16  C   UNL     1      24.490  43.081  50.612  0.00  0.00    +0.000 A 
ENDBRANCH   9  12
ENDBRANCH   3   9
ENDBRANCH   1   8
BRANCH   2  17
ATOM     17  N   UNL     1      18.564  41.177  43.891  0.00  0.00    +0.000 N 
ATOM     18  C   UNL     1      17.918  41.419  45.096  0.00  0.00    +0.000 C 
ATOM     19  O   UNL     1      17.961  42.495  45.683  0.00  0.00    +0.000 OA
ATOM     20  H   UNL     1      18.534  40.261  43.532  0.00  0.00    +0.000 HD
BRANCH  18  21
ATOM     21  C   UNL     1      17.252  40.175  45.713  0.00  0.00    +0.000 C 
ATOM     22  C   UNL     1      16.706  39.253  44.592  0.00  0.00    +0.000 C 
ATOM     23  C   UNL     1      16.110  40.608  46.662  0.00  0.00    +0.000 C 
ATOM     24  C   UNL     1      18.263  39.344  46.546  0.00  0.00    +0.000 C 
ATOM     25  C   UNL     1      15.995  38.034  45.193  0.00  0.00    +0.000 C 
ATOM     26  C   UNL     1      15.407  39.374  47.249  0.00  0.00    +0.000 C 
ATOM     27  C   UNL     1      17.577  38.100  47.148  0.00  0.00    +0.000 C 
ATOM     28  C   UNL     1      14.849  38.523  46.095  0.00  0.00    +0.000 C 
ATOM     29  C   UNL     1      17.007  37.227  46.018  0.00  0.00    +0.000 C 
ATOM     30  C   UNL     1      16.419  38.544  48.055  0.00  0.00    +0.000 C 
ENDBRANCH  18  21
ENDBRANCH   2  17
BRANCH   2  31
ATOM     31  C   UNL     1      18.489  42.851  42.082  0.00  0.00    +0.000 C 
ATOM     32  O   UNL     1      18.713  43.984  41.694  0.00  0.00    +0.000 OA
ATOM     33  OXT UNL     1      17.483  42.084  41.598  0.00  0.00    +0.000 OA
ENDBRANCH   2  31
TORSDOF 6
ENDMDL
MODEL 3
REMARK VINA RESULT:      -2.4      2.412      3.797
REMARK  Name = 323032
REMARK  6 active torsions:
REMARK  status: ('A' for Active; 'I' for Inactive)
REMARK    1  A    between atoms: C_3  and  O_5
REMARK    2  A    between atoms: O_5  and  C_8
REMARK    3  A    between atoms: C_14  and  C_15
REMARK    4  A    between atoms: CA_16  and  N_17
REMARK    5  A    between atoms: CA_16  and  C_18
REMARK    6  A    between atoms: C_19  and  C_23
REMARK                            x       y       z     vdW  Elec       q    Type
REMARK                         _______ _______ _______ _____ _____    ______ ____
ROOT
ATOM      1  C   UNL     1      20.693  38.440  44.104  0.00  0.00    +0.000 C 
ATOM      2  CA  UNL     1      19.450  38.847  44.400  0.00  0.00    +0.000 C 
ENDROOT
BRANCH   1   8
ATOM      3  C   UNL     1      24.109  40.373  45.681  0.00  0.00    +0.000 A 
ATOM      4  C   UNL     1      23.263  41.076  44.825  0.00  0.00    +0.000 A 
ATOM      5  C   UNL     1      23.985  38.987  45.808  0.00  0.00    +0.000 A 
ATOM      6  C   UNL     1      22.191  40.417  44.220  0.00  0.00    +0.000 A 
ATOM      7  C   UNL     1      22.901  38.333  45.221  0.00  0.00    +0.000 A 
ATOM      8  C   UNL     1      21.971  39.058  44.465  0.00  0.00    +0.000 A 
BRANCH   3   9
ATOM      9  O   UNL     1      25.032  41.100  46.404  0.00  0.00    +0.000 OA
BRANCH   9  12
ATOM     10 BR   UNL     1      27.410  41.614  48.298  0.00  0.00    +0.000 Br
ATOM     11  C   UNL     1      25.561  41.932  48.587  0.00  0.00    +0.000 A 
ATOM     12  C   UNL     1      24.610  41.667  47.597  0.00  0.00    +0.000 A 
ATOM     13  C   UNL     1      25.169  42.447  49.828  0.00  0.00    +0.000 A 
ATOM     14  C   UNL     1      23.270  42.010  47.840  0.00  0.00    +0.000 A 
ATOM     15  C   UNL     1      23.819  42.714  50.081  0.00  0.00    +0.000 A 
ATOM     16  C   UNL     1      22.874  42.509  49.083  0.00  0.00    +0.000 A 
ENDBRANCH   9  12
ENDBRANCH   3   9
ENDBRANCH   1   8
BRANCH   2  17
ATOM     17  N   UNL     1      19.104  39.893  45.234  0.00  0.00    +0.000 N 
ATOM     18  C   UNL     1      18.881  41.198  44.814  0.00  0.00    +0.000 C 
ATOM     19  O   UNL     1      19.054  41.576  43.660  0.00  0.00    +0.000 OA
ATOM     20  H   UNL     1      19.009  39.700  46.194  0.00  0.00    +0.000 HD
BRANCH  18  21
ATOM     21  C   UNL     1      18.530  42.174  45.952  0.00  0.00    +0.000 C 
ATOM     22  C   UNL     1      18.356  41.397  47.283  0.00  0.00    +0.000 C 
ATOM     23  C   UNL     1      17.235  42.943  45.602  0.00  0.00    +0.000 C 
ATOM     24  C   UNL     1      19.653  43.221  46.168  0.00  0.00    +0.000 C 
ATOM     25  C   UNL     1      17.957  42.351  48.417  0.00  0.00    +0.000 C 
ATOM     26  C   UNL     1      16.847  43.888  46.751  0.00  0.00    +0.000 C 
ATOM     27  C   UNL     1      19.283  44.183  47.317  0.00  0.00    +0.000 C 
ATOM     28  C   UNL     1      16.647  43.058  48.031  0.00  0.00    +0.000 C 
ATOM     29  C   UNL     1      19.075  43.383  48.614  0.00  0.00    +0.000 C 
ATOM     30  C   UNL     1      17.973  44.910  46.974  0.00  0.00    +0.000 C 
ENDBRANCH  18  21
ENDBRANCH   2  17
BRANCH   2  31
ATOM     31  C   UNL     1      18.340  38.148  43.669  0.00  0.00    +0.000 C 
ATOM     32  O   UNL     1      18.249  36.944  43.503  0.00  0.00    +0.000 OA
ATOM     33  OXT UNL     1      17.444  39.036  43.178  0.00  0.00    +0.000 OA
ENDBRANCH   2  31
TORSDOF 6
ENDMDL
MODEL 4
REMARK VINA RESULT:      -2.3      2.411      3.800
REMARK  Name = 323032
REMARK  6 active torsions:
REMARK  status: ('A' for Active; 'I' for Inactive)
REMARK    1  A    between atoms: C_3  and  O_5
REMARK    2  A    between atoms: O_5  and  C_8
REMARK    3  A    between atoms: C_14  and  C_15
REMARK    4  A    between atoms: CA_16  and  N_17
REMARK    5  A    between atoms: CA_16  and  C_18
REMARK    6  A    between atoms: C_19  and  C_23
REMARK                            x       y       z     vdW  Elec       q    Type
REMARK                         _______ _______ _______ _____ _____    ______ ____
ROOT
ATOM      1  C   UNL     1      20.640  38.435  44.101  0.00  0.00    +0.000 C 
ATOM      2  CA  UNL     1      19.397  38.843  44.400  0.00  0.00    +0.000 C 
ENDROOT
BRANCH   1   8
ATOM      3  C   UNL     1      24.062  40.366  45.669  0.00  0.00    +0.000 A 
ATOM      4  C   UNL     1      23.209  41.072  44.823  0.00  0.00    +0.000 A 
ATOM      5  C   UNL     1      23.941  38.978  45.788  0.00  0.00    +0.000 A 
ATOM      6  C   UNL     1      22.134  40.415  44.220  0.00  0.00    +0.000 A 
ATOM      7  C   UNL     1      22.856  38.326  45.204  0.00  0.00    +0.000 A 
ATOM      8  C   UNL     1      21.919  39.054  44.458  0.00  0.00    +0.000 A 
BRANCH   3   9
ATOM      9  O   UNL     1      24.987  41.090  46.391  0.00  0.00    +0.000 OA
BRANCH   9  12
ATOM     10 BR   UNL     1      27.369  41.596  48.283  0.00  0.00    +0.000 Br
ATOM     11  C   UNL     1      25.522  41.921  48.574  0.00  0.00    +0.000 A 
ATOM     12  C   UNL     1      24.569  41.659  47.584  0.00  0.00    +0.000 A 
ATOM     13  C   UNL     1      25.132  42.437  49.814  0.00  0.00    +0.000 A 
ATOM     14  C   UNL     1      23.230  42.007  47.828  0.00  0.00    +0.000 A 
ATOM     15  C   UNL     1      23.783  42.709  50.069  0.00  0.00    +0.000 A 
ATOM     16  C   UNL     1      22.837  42.507  49.072  0.00  0.00    +0.000 A 
ENDBRANCH   9  12
ENDBRANCH   3   9
ENDBRANCH   1   8
BRANCH   2  17
ATOM     17  N   UNL     1      19.054  39.889  45.234  0.00  0.00    +0.000 N 
ATOM     18  C   UNL     1      18.863  41.201  44.818  0.00  0.00    +0.000 C 
ATOM     19  O   UNL     1      19.067  41.582  43.670  0.00  0.00    +0.000 OA
ATOM     20  H   UNL     1      18.936  39.692  46.191  0.00  0.00    +0.000 HD
BRANCH  18  21
ATOM     21  C   UNL     1      18.507  42.176  45.955  0.00  0.00    +0.000 C 
ATOM     22  C   UNL     1      19.632  43.229  46.123  0.00  0.00    +0.000 C 
ATOM     23  C   UNL     1      18.298  41.392  47.271  0.00  0.00    +0.000 C 
ATOM     24  C   UNL     1      17.193  42.943  45.653  0.00  0.00    +0.000 C 
ATOM     25  C   UNL     1      19.314  44.178  47.286  0.00  0.00    +0.000 C 
ATOM     26  C   UNL     1      17.987  42.358  48.425  0.00  0.00    +0.000 C 
ATOM     27  C   UNL     1      16.860  43.919  46.801  0.00  0.00    +0.000 C 
ATOM     28  C   UNL     1      19.154  43.349  48.572  0.00  0.00    +0.000 C 
ATOM     29  C   UNL     1      18.009  44.924  46.975  0.00  0.00    +0.000 C 
ATOM     30  C   UNL     1      16.696  43.130  48.111  0.00  0.00    +0.000 C 
ENDBRANCH  18  21
ENDBRANCH   2  17
BRANCH   2  31
ATOM     31  C   UNL     1      18.286  38.142  43.673  0.00  0.00    +0.000 C 
ATOM     32  O   UNL     1      18.206  36.940  43.490  0.00  0.00    +0.000 OA
ATOM     33  OXT UNL     1      17.374  39.028  43.206  0.00  0.00    +0.000 OA
ENDBRANCH   2  31
TORSDOF 6
ENDMDL
MODEL 5
REMARK VINA RESULT:      -2.2      3.063      8.053
REMARK  Name = 323032
REMARK  6 active torsions:
REMARK  status: ('A' for Active; 'I' for Inactive)
REMARK    1  A    between atoms: C_3  and  O_5
REMARK    2  A    between atoms: O_5  and  C_8
REMARK    3  A    between atoms: C_14  and  C_15
REMARK    4  A    between atoms: CA_16  and  N_17
REMARK    5  A    between atoms: CA_16  and  C_18
REMARK    6  A    between atoms: C_19  and  C_23
REMARK                            x       y       z     vdW  Elec       q    Type
REMARK                         _______ _______ _______ _____ _____    ______ ____
ROOT
ATOM      1  C   UNL     1      23.180  38.645  44.633  0.00  0.00    +0.000 C 
ATOM      2  CA  UNL     1      24.069  38.586  45.635  0.00  0.00    +0.000 C 
ENDROOT
BRANCH   1   8
ATOM      3  C   UNL     1      20.352  41.714  43.936  0.00  0.00    +0.000 A 
ATOM      4  C   UNL     1      20.274  40.535  43.198  0.00  0.00    +0.000 A 
ATOM      5  C   UNL     1      21.491  41.989  44.700  0.00  0.00    +0.000 A 
ATOM      6  C   UNL     1      21.261  39.559  43.347  0.00  0.00    +0.000 A 
ATOM      7  C   UNL     1      22.466  41.006  44.867  0.00  0.00    +0.000 A 
ATOM      8  C   UNL     1      22.327  39.766  44.229  0.00  0.00    +0.000 A 
BRANCH   3   9
ATOM      9  O   UNL     1      19.265  42.560  43.904  0.00  0.00    +0.000 OA
BRANCH   9  12
ATOM     10 BR   UNL     1      16.847  40.648  43.826  0.00  0.00    +0.000 Br
ATOM     11  C   UNL     1      17.341  41.895  45.169  0.00  0.00    +0.000 A 
ATOM     12  C   UNL     1      18.501  42.669  45.056  0.00  0.00    +0.000 A 
ATOM     13  C   UNL     1      16.510  42.021  46.287  0.00  0.00    +0.000 A 
ATOM     14  C   UNL     1      18.858  43.506  46.126  0.00  0.00    +0.000 A 
ATOM     15  C   UNL     1      16.843  42.916  47.311  0.00  0.00    +0.000 A 
ATOM     16  C   UNL     1      18.022  43.645  47.236  0.00  0.00    +0.000 A 
ENDBRANCH   9  12
ENDBRANCH   3   9
ENDBRANCH   1   8
BRANCH   2  17
ATOM     17  N   UNL     1      24.472  39.635  46.439  0.00  0.00    +0.000 N 
ATOM     18  C   UNL     1      23.861  39.994  47.634  0.00  0.00    +0.000 C 
ATOM     19  O   UNL     1      22.837  39.465  48.055  0.00  0.00    +0.000 OA
ATOM     20  H   UNL     1      25.248  40.165  46.147  0.00  0.00    +0.000 HD
BRANCH  18  21
ATOM     21  C   UNL     1      24.496  41.215  48.323  0.00  0.00    +0.000 C 
ATOM     22  C   UNL     1      23.930  42.524  47.713  0.00  0.00    +0.000 C 
ATOM     23  C   UNL     1      26.033  41.165  48.166  0.00  0.00    +0.000 C 
ATOM     24  C   UNL     1      24.181  41.237  49.842  0.00  0.00    +0.000 C 
ATOM     25  C   UNL     1      24.592  43.750  48.356  0.00  0.00    +0.000 C 
ATOM     26  C   UNL     1      26.677  42.403  48.810  0.00  0.00    +0.000 C 
ATOM     27  C   UNL     1      24.820  42.472  50.510  0.00  0.00    +0.000 C 
ATOM     28  C   UNL     1      26.112  43.665  48.136  0.00  0.00    +0.000 C 
ATOM     29  C   UNL     1      24.276  43.753  49.858  0.00  0.00    +0.000 C 
ATOM     30  C   UNL     1      26.344  42.430  50.310  0.00  0.00    +0.000 C 
ENDBRANCH  18  21
ENDBRANCH   2  17
BRANCH   2  31
ATOM     31  C   UNL     1      24.598  37.219  45.962  0.00  0.00    +0.000 C 
ATOM     32  O   UNL     1      25.579  36.700  45.458  0.00  0.00    +0.000 OA
ATOM     33  OXT UNL     1      23.821  36.603  46.884  0.00  0.00    +0.000 OA
ENDBRANCH   2  31
TORSDOF 6
ENDMDL
MODEL 6
REMARK VINA RESULT:      -1.5      2.613      4.140
REMARK  Name = 323032
REMARK  6 active torsions:
REMARK  status: ('A' for Active; 'I' for Inactive)
REMARK    1  A    between atoms: C_3  and  O_5
REMARK    2  A    between atoms: O_5  and  C_8
REMARK    3  A    between atoms: C_14  and  C_15
REMARK    4  A    between atoms: CA_16  and  N_17
REMARK    5  A    between atoms: CA_16  and  C_18
REMARK    6  A    between atoms: C_19  and  C_23
REMARK                            x       y       z     vdW  Elec       q    Type
REMARK                         _______ _______ _______ _____ _____    ______ ____
ROOT
ATOM      1  C   UNL     1      20.450  38.142  44.201  0.00  0.00    +0.000 C 
ATOM      2  CA  UNL     1      19.229  38.657  44.408  0.00  0.00    +0.000 C 
ENDROOT
BRANCH   1   8
ATOM      3  C   UNL     1      23.967  40.377  44.935  0.00  0.00    +0.000 A 
ATOM      4  C   UNL     1      23.088  40.798  43.940  0.00  0.00    +0.000 A 
ATOM      5  C   UNL     1      23.831  39.104  45.498  0.00  0.00    +0.000 A 
ATOM      6  C   UNL     1      21.977  40.013  43.621  0.00  0.00    +0.000 A 
ATOM      7  C   UNL     1      22.712  38.330  45.196  0.00  0.00    +0.000 A 
ATOM      8  C   UNL     1      21.753  38.807  44.291  0.00  0.00    +0.000 A 
BRANCH   3   9
ATOM      9  O   UNL     1      24.934  41.267  45.351  0.00  0.00    +0.000 OA
BRANCH   9  12
ATOM     10 BR   UNL     1      22.300  42.221  46.640  0.00  0.00    +0.000 Br
ATOM     11  C   UNL     1      23.992  41.932  47.451  0.00  0.00    +0.000 A 
ATOM     12  C   UNL     1      25.084  41.462  46.716  0.00  0.00    +0.000 A 
ATOM     13  C   UNL     1      24.120  42.201  48.818  0.00  0.00    +0.000 A 
ATOM     14  C   UNL     1      26.283  41.182  47.393  0.00  0.00    +0.000 A 
ATOM     15  C   UNL     1      25.343  41.986  49.464  0.00  0.00    +0.000 A 
ATOM     16  C   UNL     1      26.417  41.464  48.754  0.00  0.00    +0.000 A 
ENDBRANCH   9  12
ENDBRANCH   3   9
ENDBRANCH   1   8
BRANCH   2  17
ATOM     17  N   UNL     1      18.940  39.920  44.885  0.00  0.00    +0.000 N 
ATOM     18  C   UNL     1      18.478  40.194  46.166  0.00  0.00    +0.000 C 
ATOM     19  O   UNL     1      18.194  39.323  46.983  0.00  0.00    +0.000 OA
ATOM     20  H   UNL     1      19.071  40.681  44.275  0.00  0.00    +0.000 HD
BRANCH  18  21
ATOM     21  C   UNL     1      18.213  41.687  46.434  0.00  0.00    +0.000 C 
ATOM     22  C   UNL     1      16.690  41.939  46.578  0.00  0.00    +0.000 C 
ATOM     23  C   UNL     1      18.796  42.537  45.282  0.00  0.00    +0.000 C 
ATOM     24  C   UNL     1      18.888  42.155  47.750  0.00  0.00    +0.000 C 
ATOM     25  C   UNL     1      16.408  43.431  46.795  0.00  0.00    +0.000 C 
ATOM     26  C   UNL     1      18.498  44.027  45.514  0.00  0.00    +0.000 C 
ATOM     27  C   UNL     1      18.603  43.651  48.002  0.00  0.00    +0.000 C 
ATOM     28  C   UNL     1      16.975  44.222  45.604  0.00  0.00    +0.000 C 
ATOM     29  C   UNL     1      17.086  43.880  48.097  0.00  0.00    +0.000 C 
ATOM     30  C   UNL     1      19.152  44.480  46.830  0.00  0.00    +0.000 C 
ENDBRANCH  18  21
ENDBRANCH   2  17
BRANCH   2  31
ATOM     31  C   UNL     1      18.075  37.795  43.984  0.00  0.00    +0.000 C 
ATOM     32  O   UNL     1      18.056  36.576  44.005  0.00  0.00    +0.000 OA
ATOM     33  OXT UNL     1      17.043  38.547  43.537  0.00  0.00    +0.000 OA
ENDBRANCH   2  31
TORSDOF 6
ENDMDL
MODEL 7
REMARK VINA RESULT:      -1.4      2.514      3.841
REMARK  Name = 323032
REMARK  6 active torsions:
REMARK  status: ('A' for Active; 'I' for Inactive)
REMARK    1  A    between atoms: C_3  and  O_5
REMARK    2  A    between atoms: O_5  and  C_8
REMARK    3  A    between atoms: C_14  and  C_15
REMARK    4  A    between atoms: CA_16  and  N_17
REMARK    5  A    between atoms: CA_16  and  C_18
REMARK    6  A    between atoms: C_19  and  C_23
REMARK                            x       y       z     vdW  Elec       q    Type
REMARK                         _______ _______ _______ _____ _____    ______ ____
ROOT
ATOM      1  C   UNL     1      20.487  38.842  43.981  0.00  0.00    +0.000 C 
ATOM      2  CA  UNL     1      19.258  39.213  44.371  0.00  0.00    +0.000 C 
ENDROOT
BRANCH   1   8
ATOM      3  C   UNL     1      24.177  40.382  45.363  0.00  0.00    +0.000 A 
ATOM      4  C   UNL     1      23.021  41.146  45.513  0.00  0.00    +0.000 A 
ATOM      5  C   UNL     1      24.169  39.252  44.540  0.00  0.00    +0.000 A 
ATOM      6  C   UNL     1      21.817  40.691  44.970  0.00  0.00    +0.000 A 
ATOM      7  C   UNL     1      22.963  38.786  44.016  0.00  0.00    +0.000 A 
ATOM      8  C   UNL     1      21.773  39.480  44.273  0.00  0.00    +0.000 A 
BRANCH   3   9
ATOM      9  O   UNL     1      25.293  40.768  46.075  0.00  0.00    +0.000 OA
BRANCH   9  12
ATOM     10 BR   UNL     1      23.517  39.009  47.882  0.00  0.00    +0.000 Br
ATOM     11  C   UNL     1      24.275  40.711  48.244  0.00  0.00    +0.000 A 
ATOM     12  C   UNL     1      25.092  41.361  47.313  0.00  0.00    +0.000 A 
ATOM     13  C   UNL     1      23.998  41.305  49.480  0.00  0.00    +0.000 A 
ATOM     14  C   UNL     1      25.696  42.575  47.677  0.00  0.00    +0.000 A 
ATOM     15  C   UNL     1      24.549  42.551  49.799  0.00  0.00    +0.000 A 
ATOM     16  C   UNL     1      25.408  43.177  48.904  0.00  0.00    +0.000 A 
ENDBRANCH   9  12
ENDBRANCH   3   9
ENDBRANCH   1   8
BRANCH   2  17
ATOM     17  N   UNL     1      18.948  40.227  45.256  0.00  0.00    +0.000 N 
ATOM     18  C   UNL     1      18.655  41.534  44.887  0.00  0.00    +0.000 C 
ATOM     19  O   UNL     1      18.730  41.944  43.733  0.00  0.00    +0.000 OA
ATOM     20  H   UNL     1      18.932  40.010  46.215  0.00  0.00    +0.000 HD
BRANCH  18  21
ATOM     21  C   UNL     1      18.365  42.472  46.073  0.00  0.00    +0.000 C 
ATOM     22  C   UNL     1      18.294  41.657  47.390  0.00  0.00    +0.000 C 
ATOM     23  C   UNL     1      17.036  43.226  45.832  0.00  0.00    +0.000 C 
ATOM     24  C   UNL     1      19.481  43.535  46.243  0.00  0.00    +0.000 C 
ATOM     25  C   UNL     1      17.955  42.572  48.574  0.00  0.00    +0.000 C 
ATOM     26  C   UNL     1      16.710  44.131  47.029  0.00  0.00    +0.000 C 
ATOM     27  C   UNL     1      19.173  44.458  47.441  0.00  0.00    +0.000 C 
ATOM     28  C   UNL     1      16.610  43.264  48.296  0.00  0.00    +0.000 C 
ATOM     29  C   UNL     1      19.066  43.620  48.725  0.00  0.00    +0.000 C 
ATOM     30  C   UNL     1      17.831  45.169  47.206  0.00  0.00    +0.000 C 
ENDBRANCH  18  21
ENDBRANCH   2  17
BRANCH   2  31
ATOM     31  C   UNL     1      18.116  38.508  43.696  0.00  0.00    +0.000 C 
ATOM     32  O   UNL     1      17.209  39.049  43.089  0.00  0.00    +0.000 OA
ATOM     33  OXT UNL     1      18.199  37.168  43.871  0.00  0.00    +0.000 OA
ENDBRANCH   2  31
TORSDOF 6
ENDMDL
