MODEL 1
REMARK VINA RESULT:      -8.1      0.000      0.000
REMARK  Name = 321671
REMARK  6 active torsions:
REMARK  status: ('A' for Active; 'I' for Inactive)
REMARK    1  A    between atoms: C_3  and  O_5
REMARK    2  A    between atoms: O_5  and  C_8
REMARK    3  A    between atoms: C_14  and  C_15
REMARK    4  A    between atoms: CA_16  and  N_17
REMARK    5  A    between atoms: CA_16  and  C_18
REMARK    6  A    between atoms: C_19  and  C_23
REMARK                            x       y       z     vdW  Elec       q    Type
REMARK                         _______ _______ _______ _____ _____    ______ ____
ROOT
ATOM      1  C   UNL     1      22.524  42.397  48.610  0.00  0.00    +0.000 C 
ATOM      2  CA  UNL     1      23.853  42.191  48.575  0.00  0.00    +0.000 C 
ENDROOT
BRANCH   1   8
ATOM      3  C   UNL     1      19.304  41.668  45.942  0.00  0.00    +0.000 A 
ATOM      4  C   UNL     1      19.901  40.591  46.597  0.00  0.00    +0.000 A 
ATOM      5  C   UNL     1      19.911  42.927  45.972  0.00  0.00    +0.000 A 
ATOM      6  C   UNL     1      21.018  40.807  47.414  0.00  0.00    +0.000 A 
ATOM      7  C   UNL     1      21.012  43.145  46.802  0.00  0.00    +0.000 A 
ATOM      8  C   UNL     1      21.541  42.097  47.565  0.00  0.00    +0.000 A 
BRANCH   3   9
ATOM      9  O   UNL     1      18.097  41.444  45.310  0.00  0.00    +0.000 OA
BRANCH   9  12
ATOM     10 BR   UNL     1      19.046  39.138  43.475  0.00  0.00    +0.000 Br
ATOM     11  C   UNL     1      17.710  39.125  44.824  0.00  0.00    +0.000 A 
ATOM     12  C   UNL     1      17.436  40.259  45.597  0.00  0.00    +0.000 A 
ATOM     13  C   UNL     1      16.996  37.939  45.031  0.00  0.00    +0.000 A 
ATOM     14  C   UNL     1      16.509  40.153  46.648  0.00  0.00    +0.000 A 
ATOM     15  C   UNL     1      16.018  37.872  46.025  0.00  0.00    +0.000 A 
ATOM     16  C   UNL     1      15.786  38.974  46.842  0.00  0.00    +0.000 A 
ENDBRANCH   9  12
ENDBRANCH   3   9
ENDBRANCH   1   8
BRANCH   2  17
ATOM     17  N   UNL     1      24.487  41.546  47.524  0.00  0.00    +0.000 N 
ATOM     18  C   UNL     1      24.412  40.164  47.437  0.00  0.00    +0.000 C 
ATOM     19  O   UNL     1      23.959  39.487  48.359  0.00  0.00    +0.000 OA
ATOM     20  H   UNL     1      24.984  42.062  46.849  0.00  0.00    +0.000 HD
BRANCH  18  21
ATOM     21  C   UNL     1      25.080  39.569  46.193  0.00  0.00    +0.000 C 
ATOM     22  C   UNL     1      24.963  40.507  44.985  0.00  0.00    +0.000 C 
ATOM     23  C   UNL     1      24.493  38.198  45.827  0.00  0.00    +0.000 C 
ATOM     24  C   UNL     1      23.511  40.670  44.551  0.00  0.00    +0.000 C 
ATOM     25  C   UNL     1      23.049  38.285  45.329  0.00  0.00    +0.000 C 
ATOM     26  C   UNL     1      22.854  39.331  44.233  0.00  0.00    +0.000 C 
ENDBRANCH  18  21
ENDBRANCH   2  17
BRANCH   2  27
ATOM     27  C   UNL     1      24.652  42.716  49.729  0.00  0.00    +0.000 C 
ATOM     28  O   UNL     1      24.173  43.082  50.790  0.00  0.00    +0.000 OA
ATOM     29  OXT UNL     1      25.973  42.784  49.449  0.00  0.00    +0.000 OA
ENDBRANCH   2  27
TORSDOF 6
ENDMDL
MODEL 2
REMARK VINA RESULT:      -7.6      2.839      7.582
REMARK  Name = 321671
REMARK  6 active torsions:
REMARK  status: ('A' for Active; 'I' for Inactive)
REMARK    1  A    between atoms: C_3  and  O_5
REMARK    2  A    between atoms: O_5  and  C_8
REMARK    3  A    between atoms: C_14  and  C_15
REMARK    4  A    between atoms: CA_16  and  N_17
REMARK    5  A    between atoms: CA_16  and  C_18
REMARK    6  A    between atoms: C_19  and  C_23
REMARK                            x       y       z     vdW  Elec       q    Type
REMARK                         _______ _______ _______ _____ _____    ______ ____
ROOT
ATOM      1  C   UNL     1      20.186  41.880  43.328  0.00  0.00    +0.000 C 
ATOM      2  CA  UNL     1      18.871  42.157  43.399  0.00  0.00    +0.000 C 
ENDROOT
BRANCH   1   8
ATOM      3  C   UNL     1      22.428  40.945  46.808  0.00  0.00    +0.000 A 
ATOM      4  C   UNL     1      22.078  42.272  46.561  0.00  0.00    +0.000 A 
ATOM      5  C   UNL     1      22.260  39.981  45.809  0.00  0.00    +0.000 A 
ATOM      6  C   UNL     1      21.413  42.607  45.376  0.00  0.00    +0.000 A 
ATOM      7  C   UNL     1      21.579  40.312  44.636  0.00  0.00    +0.000 A 
ATOM      8  C   UNL     1      21.108  41.615  44.435  0.00  0.00    +0.000 A 
BRANCH   3   9
ATOM      9  O   UNL     1      22.902  40.631  48.066  0.00  0.00    +0.000 OA
BRANCH   9  12
ATOM     10 BR   UNL     1      25.611  40.542  46.572  0.00  0.00    +0.000 Br
ATOM     11  C   UNL     1      25.123  41.540  48.110  0.00  0.00    +0.000 A 
ATOM     12  C   UNL     1      23.826  41.495  48.634  0.00  0.00    +0.000 A 
ATOM     13  C   UNL     1      26.103  42.336  48.716  0.00  0.00    +0.000 A 
ATOM     14  C   UNL     1      23.502  42.336  49.711  0.00  0.00    +0.000 A 
ATOM     15  C   UNL     1      25.787  43.106  49.838  0.00  0.00    +0.000 A 
ATOM     16  C   UNL     1      24.484  43.117  50.325  0.00  0.00    +0.000 A 
ENDBRANCH   9  12
ENDBRANCH   3   9
ENDBRANCH   1   8
BRANCH   2  17
ATOM     17  N   UNL     1      18.160  42.133  44.589  0.00  0.00    +0.000 N 
ATOM     18  C   UNL     1      17.469  40.983  44.940  0.00  0.00    +0.000 C 
ATOM     19  O   UNL     1      17.320  40.057  44.144  0.00  0.00    +0.000 OA
ATOM     20  H   UNL     1      18.146  42.923  45.177  0.00  0.00    +0.000 HD
BRANCH  18  21
ATOM     21  C   UNL     1      16.789  41.045  46.311  0.00  0.00    +0.000 C 
ATOM     22  C   UNL     1      16.625  42.490  46.796  0.00  0.00    +0.000 C 
ATOM     23  C   UNL     1      17.557  40.240  47.369  0.00  0.00    +0.000 C 
ATOM     24  C   UNL     1      17.979  43.143  47.054  0.00  0.00    +0.000 C 
ATOM     25  C   UNL     1      18.909  40.864  47.723  0.00  0.00    +0.000 C 
ATOM     26  C   UNL     1      18.815  42.352  48.054  0.00  0.00    +0.000 C 
ENDBRANCH  18  21
ENDBRANCH   2  17
BRANCH   2  27
ATOM     27  C   UNL     1      18.184  42.523  42.118  0.00  0.00    +0.000 C 
ATOM     28  O   UNL     1      17.376  41.813  41.540  0.00  0.00    +0.000 OA
ATOM     29  OXT UNL     1      18.593  43.720  41.641  0.00  0.00    +0.000 OA
ENDBRANCH   2  27
TORSDOF 6
ENDMDL
MODEL 3
REMARK VINA RESULT:      -7.1      1.971      2.820
REMARK  Name = 321671
REMARK  6 active torsions:
REMARK  status: ('A' for Active; 'I' for Inactive)
REMARK    1  A    between atoms: C_3  and  O_5
REMARK    2  A    between atoms: O_5  and  C_8
REMARK    3  A    between atoms: C_14  and  C_15
REMARK    4  A    between atoms: CA_16  and  N_17
REMARK    5  A    between atoms: CA_16  and  C_18
REMARK    6  A    between atoms: C_19  and  C_23
REMARK                            x       y       z     vdW  Elec       q    Type
REMARK                         _______ _______ _______ _____ _____    ______ ____
ROOT
ATOM      1  C   UNL     1      22.513  41.835  48.182  0.00  0.00    +0.000 C 
ATOM      2  CA  UNL     1      23.479  41.809  47.245  0.00  0.00    +0.000 C 
ENDROOT
BRANCH   1   8
ATOM      3  C   UNL     1      18.416  41.752  47.076  0.00  0.00    +0.000 A 
ATOM      4  C   UNL     1      18.928  42.888  47.701  0.00  0.00    +0.000 A 
ATOM      5  C   UNL     1      19.170  40.575  47.040  0.00  0.00    +0.000 A 
ATOM      6  C   UNL     1      20.255  42.897  48.147  0.00  0.00    +0.000 A 
ATOM      7  C   UNL     1      20.499  40.591  47.467  0.00  0.00    +0.000 A 
ATOM      8  C   UNL     1      21.063  41.767  47.978  0.00  0.00    +0.000 A 
BRANCH   3   9
ATOM      9  O   UNL     1      17.174  41.853  46.480  0.00  0.00    +0.000 OA
BRANCH   9  12
ATOM     10 BR   UNL     1      16.151  38.995  45.874  0.00  0.00    +0.000 Br
ATOM     11  C   UNL     1      16.705  40.351  44.667  0.00  0.00    +0.000 A 
ATOM     12  C   UNL     1      17.101  41.617  45.115  0.00  0.00    +0.000 A 
ATOM     13  C   UNL     1      16.706  40.054  43.298  0.00  0.00    +0.000 A 
ATOM     14  C   UNL     1      17.400  42.608  44.165  0.00  0.00    +0.000 A 
ATOM     15  C   UNL     1      17.084  41.025  42.369  0.00  0.00    +0.000 A 
ATOM     16  C   UNL     1      17.417  42.305  42.802  0.00  0.00    +0.000 A 
ENDBRANCH   9  12
ENDBRANCH   3   9
ENDBRANCH   1   8
BRANCH   2  17
ATOM     17  N   UNL     1      23.216  41.611  45.899  0.00  0.00    +0.000 N 
ATOM     18  C   UNL     1      23.410  40.350  45.352  0.00  0.00    +0.000 C 
ATOM     19  O   UNL     1      23.978  39.460  45.981  0.00  0.00    +0.000 OA
ATOM     20  H   UNL     1      22.898  42.354  45.337  0.00  0.00    +0.000 HD
BRANCH  18  21
ATOM     21  C   UNL     1      23.011  40.230  43.878  0.00  0.00    +0.000 C 
ATOM     22  C   UNL     1      22.072  41.365  43.452  0.00  0.00    +0.000 C 
ATOM     23  C   UNL     1      22.346  38.880  43.572  0.00  0.00    +0.000 C 
ATOM     24  C   UNL     1      20.733  41.276  44.178  0.00  0.00    +0.000 C 
ATOM     25  C   UNL     1      20.970  38.736  44.225  0.00  0.00    +0.000 C 
ATOM     26  C   UNL     1      20.052  39.929  43.962  0.00  0.00    +0.000 C 
ENDBRANCH  18  21
ENDBRANCH   2  17
BRANCH   2  27
ATOM     27  C   UNL     1      24.885  42.032  47.714  0.00  0.00    +0.000 C 
ATOM     28  O   UNL     1      25.871  41.953  46.999  0.00  0.00    +0.000 OA
ATOM     29  OXT UNL     1      24.949  42.286  49.039  0.00  0.00    +0.000 OA
ENDBRANCH   2  27
TORSDOF 6
ENDMDL
MODEL 4
REMARK VINA RESULT:      -7.1      3.010      7.776
REMARK  Name = 321671
REMARK  6 active torsions:
REMARK  status: ('A' for Active; 'I' for Inactive)
REMARK    1  A    between atoms: C_3  and  O_5
REMARK    2  A    between atoms: O_5  and  C_8
REMARK    3  A    between atoms: C_14  and  C_15
REMARK    4  A    between atoms: CA_16  and  N_17
REMARK    5  A    between atoms: CA_16  and  C_18
REMARK    6  A    between atoms: C_19  and  C_23
REMARK                            x       y       z     vdW  Elec       q    Type
REMARK                         _______ _______ _______ _____ _____    ______ ____
ROOT
ATOM      1  C   UNL     1      19.574  40.646  42.963  0.00  0.00    +0.000 C 
ATOM      2  CA  UNL     1      18.312  40.912  43.349  0.00  0.00    +0.000 C 
ENDROOT
BRANCH   1   8
ATOM      3  C   UNL     1      23.273  40.476  45.038  0.00  0.00    +0.000 A 
ATOM      4  C   UNL     1      22.840  39.356  44.327  0.00  0.00    +0.000 A 
ATOM      5  C   UNL     1      22.395  41.540  45.266  0.00  0.00    +0.000 A 
ATOM      6  C   UNL     1      21.584  39.368  43.709  0.00  0.00    +0.000 A 
ATOM      7  C   UNL     1      21.151  41.559  44.634  0.00  0.00    +0.000 A 
ATOM      8  C   UNL     1      20.759  40.495  43.812  0.00  0.00    +0.000 A 
BRANCH   3   9
ATOM      9  O   UNL     1      24.587  40.497  45.462  0.00  0.00    +0.000 OA
BRANCH   9  12
ATOM     10 BR   UNL     1      23.274  38.910  47.772  0.00  0.00    +0.000 Br
ATOM     11  C   UNL     1      24.287  40.513  47.843  0.00  0.00    +0.000 A 
ATOM     12  C   UNL     1      24.850  41.077  46.693  0.00  0.00    +0.000 A 
ATOM     13  C   UNL     1      24.462  41.126  49.090  0.00  0.00    +0.000 A 
ATOM     14  C   UNL     1      25.675  42.207  46.829  0.00  0.00    +0.000 A 
ATOM     15  C   UNL     1      25.217  42.295  49.198  0.00  0.00    +0.000 A 
ATOM     16  C   UNL     1      25.835  42.826  48.070  0.00  0.00    +0.000 A 
ENDBRANCH   9  12
ENDBRANCH   3   9
ENDBRANCH   1   8
BRANCH   2  17
ATOM     17  N   UNL     1      17.934  40.991  44.680  0.00  0.00    +0.000 N 
ATOM     18  C   UNL     1      17.161  42.064  45.100  0.00  0.00    +0.000 C 
ATOM     19  O   UNL     1      16.961  43.033  44.370  0.00  0.00    +0.000 OA
ATOM     20  H   UNL     1      18.210  40.295  45.319  0.00  0.00    +0.000 HD
BRANCH  18  21
ATOM     21  C   UNL     1      16.737  42.003  46.571  0.00  0.00    +0.000 C 
ATOM     22  C   UNL     1      16.905  43.360  47.264  0.00  0.00    +0.000 C 
ATOM     23  C   UNL     1      17.519  40.936  47.350  0.00  0.00    +0.000 C 
ATOM     24  C   UNL     1      18.375  43.760  47.347  0.00  0.00    +0.000 C 
ATOM     25  C   UNL     1      18.997  41.292  47.521  0.00  0.00    +0.000 C 
ATOM     26  C   UNL     1      19.216  42.705  48.057  0.00  0.00    +0.000 C 
ENDBRANCH  18  21
ENDBRANCH   2  17
BRANCH   2  27
ATOM     27  C   UNL     1      17.307  41.151  42.264  0.00  0.00    +0.000 C 
ATOM     28  O   UNL     1      17.444  41.962  41.362  0.00  0.00    +0.000 OA
ATOM     29  OXT UNL     1      16.197  40.395  42.418  0.00  0.00    +0.000 OA
ENDBRANCH   2  27
TORSDOF 6
ENDMDL
MODEL 5
REMARK VINA RESULT:      -7.0      3.209      7.879
REMARK  Name = 321671
REMARK  6 active torsions:
REMARK  status: ('A' for Active; 'I' for Inactive)
REMARK    1  A    between atoms: C_3  and  O_5
REMARK    2  A    between atoms: O_5  and  C_8
REMARK    3  A    between atoms: C_14  and  C_15
REMARK    4  A    between atoms: CA_16  and  N_17
REMARK    5  A    between atoms: CA_16  and  C_18
REMARK    6  A    between atoms: C_19  and  C_23
REMARK                            x       y       z     vdW  Elec       q    Type
REMARK                         _______ _______ _______ _____ _____    ______ ____
ROOT
ATOM      1  C   UNL     1      19.007  41.376  42.685  0.00  0.00    +0.000 C 
ATOM      2  CA  UNL     1      17.677  41.441  42.876  0.00  0.00    +0.000 C 
ENDROOT
BRANCH   1   8
ATOM      3  C   UNL     1      21.686  41.634  45.968  0.00  0.00    +0.000 A 
ATOM      4  C   UNL     1      21.234  42.808  45.364  0.00  0.00    +0.000 A 
ATOM      5  C   UNL     1      21.458  40.400  45.350  0.00  0.00    +0.000 A 
ATOM      6  C   UNL     1      20.419  42.737  44.229  0.00  0.00    +0.000 A 
ATOM      7  C   UNL     1      20.629  40.329  44.230  0.00  0.00    +0.000 A 
ATOM      8  C   UNL     1      20.065  41.493  43.693  0.00  0.00    +0.000 A 
BRANCH   3   9
ATOM      9  O   UNL     1      22.319  41.744  47.190  0.00  0.00    +0.000 OA
BRANCH   9  12
ATOM     10 BR   UNL     1      23.600  42.681  49.847  0.00  0.00    +0.000 Br
ATOM     11  C   UNL     1      24.418  41.848  48.350  0.00  0.00    +0.000 A 
ATOM     12  C   UNL     1      23.672  41.446  47.236  0.00  0.00    +0.000 A 
ATOM     13  C   UNL     1      25.802  41.639  48.388  0.00  0.00    +0.000 A 
ATOM     14  C   UNL     1      24.321  40.741  46.207  0.00  0.00    +0.000 A 
ATOM     15  C   UNL     1      26.446  41.011  47.321  0.00  0.00    +0.000 A 
ATOM     16  C   UNL     1      25.704  40.550  46.238  0.00  0.00    +0.000 A 
ENDBRANCH   9  12
ENDBRANCH   3   9
ENDBRANCH   1   8
BRANCH   2  17
ATOM     17  N   UNL     1      17.101  41.540  44.133  0.00  0.00    +0.000 N 
ATOM     18  C   UNL     1      16.996  40.401  44.918  0.00  0.00    +0.000 C 
ATOM     19  O   UNL     1      17.229  39.284  44.461  0.00  0.00    +0.000 OA
ATOM     20  H   UNL     1      16.770  42.406  44.464  0.00  0.00    +0.000 HD
BRANCH  18  21
ATOM     21  C   UNL     1      16.418  40.646  46.316  0.00  0.00    +0.000 C 
ATOM     22  C   UNL     1      16.435  42.135  46.682  0.00  0.00    +0.000 C 
ATOM     23  C   UNL     1      17.168  39.850  47.394  0.00  0.00    +0.000 C 
ATOM     24  C   UNL     1      17.862  42.657  46.805  0.00  0.00    +0.000 C 
ATOM     25  C   UNL     1      18.598  40.352  47.613  0.00  0.00    +0.000 C 
ATOM     26  C   UNL     1      18.678  41.864  47.819  0.00  0.00    +0.000 C 
ENDBRANCH  18  21
ENDBRANCH   2  17
BRANCH   2  27
ATOM     27  C   UNL     1      16.814  41.427  41.651  0.00  0.00    +0.000 C 
ATOM     28  O   UNL     1      17.121  41.935  40.584  0.00  0.00    +0.000 OA
ATOM     29  OXT UNL     1      15.624  40.823  41.869  0.00  0.00    +0.000 OA
ENDBRANCH   2  27
TORSDOF 6
ENDMDL
MODEL 6
REMARK VINA RESULT:      -6.9      1.609      2.179
REMARK  Name = 321671
REMARK  6 active torsions:
REMARK  status: ('A' for Active; 'I' for Inactive)
REMARK    1  A    between atoms: C_3  and  O_5
REMARK    2  A    between atoms: O_5  and  C_8
REMARK    3  A    between atoms: C_14  and  C_15
REMARK    4  A    between atoms: CA_16  and  N_17
REMARK    5  A    between atoms: CA_16  and  C_18
REMARK    6  A    between atoms: C_19  and  C_23
REMARK                            x       y       z     vdW  Elec       q    Type
REMARK                         _______ _______ _______ _____ _____    ______ ____
ROOT
ATOM      1  C   UNL     1      22.465  42.376  48.591  0.00  0.00    +0.000 C 
ATOM      2  CA  UNL     1      23.775  42.127  48.774  0.00  0.00    +0.000 C 
ENDROOT
BRANCH   1   8
ATOM      3  C   UNL     1      20.482  41.089  45.066  0.00  0.00    +0.000 A 
ATOM      4  C   UNL     1      21.152  42.312  45.061  0.00  0.00    +0.000 A 
ATOM      5  C   UNL     1      20.259  40.420  46.273  0.00  0.00    +0.000 A 
ATOM      6  C   UNL     1      21.737  42.789  46.240  0.00  0.00    +0.000 A 
ATOM      7  C   UNL     1      20.860  40.886  47.444  0.00  0.00    +0.000 A 
ATOM      8  C   UNL     1      21.644  42.046  47.423  0.00  0.00    +0.000 A 
BRANCH   3   9
ATOM      9  O   UNL     1      20.093  40.567  43.848  0.00  0.00    +0.000 OA
BRANCH   9  12
ATOM     10 BR   UNL     1      18.275  38.111  44.347  0.00  0.00    +0.000 Br
ATOM     11  C   UNL     1      17.846  39.778  43.546  0.00  0.00    +0.000 A 
ATOM     12  C   UNL     1      18.790  40.806  43.439  0.00  0.00    +0.000 A 
ATOM     13  C   UNL     1      16.545  39.959  43.061  0.00  0.00    +0.000 A 
ATOM     14  C   UNL     1      18.379  42.050  42.930  0.00  0.00    +0.000 A 
ATOM     15  C   UNL     1      16.174  41.174  42.482  0.00  0.00    +0.000 A 
ATOM     16  C   UNL     1      17.087  42.223  42.431  0.00  0.00    +0.000 A 
ENDBRANCH   9  12
ENDBRANCH   3   9
ENDBRANCH   1   8
BRANCH   2  17
ATOM     17  N   UNL     1      24.536  41.402  47.870  0.00  0.00    +0.000 N 
ATOM     18  C   UNL     1      24.331  40.035  47.757  0.00  0.00    +0.000 C 
ATOM     19  O   UNL     1      23.628  39.425  48.560  0.00  0.00    +0.000 OA
ATOM     20  H   UNL     1      25.215  41.852  47.316  0.00  0.00    +0.000 HD
BRANCH  18  21
ATOM     21  C   UNL     1      25.171  39.355  46.671  0.00  0.00    +0.000 C 
ATOM     22  C   UNL     1      25.487  40.313  45.517  0.00  0.00    +0.000 C 
ATOM     23  C   UNL     1      24.481  38.101  46.115  0.00  0.00    +0.000 C 
ATOM     24  C   UNL     1      24.219  40.714  44.770  0.00  0.00    +0.000 C 
ATOM     25  C   UNL     1      23.225  38.426  45.303  0.00  0.00    +0.000 C 
ATOM     26  C   UNL     1      23.456  39.503  44.245  0.00  0.00    +0.000 C 
ENDBRANCH  18  21
ENDBRANCH   2  17
BRANCH   2  27
ATOM     27  C   UNL     1      24.407  42.692  50.009  0.00  0.00    +0.000 C 
ATOM     28  O   UNL     1      23.866  42.738  51.103  0.00  0.00    +0.000 OA
ATOM     29  OXT UNL     1      25.639  43.193  49.771  0.00  0.00    +0.000 OA
ENDBRANCH   2  27
TORSDOF 6
ENDMDL
MODEL 7
REMARK VINA RESULT:      -6.9      1.505      1.913
REMARK  Name = 321671
REMARK  6 active torsions:
REMARK  status: ('A' for Active; 'I' for Inactive)
REMARK    1  A    between atoms: C_3  and  O_5
REMARK    2  A    between atoms: O_5  and  C_8
REMARK    3  A    between atoms: C_14  and  C_15
REMARK    4  A    between atoms: CA_16  and  N_17
REMARK    5  A    between atoms: CA_16  and  C_18
REMARK    6  A    between atoms: C_19  and  C_23
REMARK                            x       y       z     vdW  Elec       q    Type
REMARK                         _______ _______ _______ _____ _____    ______ ____
ROOT
ATOM      1  C   UNL     1      22.665  42.095  48.515  0.00  0.00    +0.000 C 
ATOM      2  CA  UNL     1      23.928  41.914  48.088  0.00  0.00    +0.000 C 
ENDROOT
BRANCH   1   8
ATOM      3  C   UNL     1      18.828  41.587  46.772  0.00  0.00    +0.000 A 
ATOM      4  C   UNL     1      19.687  40.491  46.857  0.00  0.00    +0.000 A 
ATOM      5  C   UNL     1      19.312  42.874  47.028  0.00  0.00    +0.000 A 
ATOM      6  C   UNL     1      20.985  40.662  47.351  0.00  0.00    +0.000 A 
ATOM      7  C   UNL     1      20.600  43.041  47.539  0.00  0.00    +0.000 A 
ATOM      8  C   UNL     1      21.426  41.930  47.750  0.00  0.00    +0.000 A 
BRANCH   3   9
ATOM      9  O   UNL     1      17.504  41.342  46.468  0.00  0.00    +0.000 OA
BRANCH   9  12
ATOM     10 BR   UNL     1      16.666  38.454  45.731  0.00  0.00    +0.000 Br
ATOM     11  C   UNL     1      16.812  39.982  44.614  0.00  0.00    +0.000 A 
ATOM     12  C   UNL     1      17.166  41.235  45.127  0.00  0.00    +0.000 A 
ATOM     13  C   UNL     1      16.552  39.825  43.247  0.00  0.00    +0.000 A 
ATOM     14  C   UNL     1      17.156  42.345  44.266  0.00  0.00    +0.000 A 
ATOM     15  C   UNL     1      16.626  40.922  42.388  0.00  0.00    +0.000 A 
ATOM     16  C   UNL     1      16.913  42.184  42.900  0.00  0.00    +0.000 A 
ENDBRANCH   9  12
ENDBRANCH   3   9
ENDBRANCH   1   8
BRANCH   2  17
ATOM     17  N   UNL     1      24.233  41.431  46.825  0.00  0.00    +0.000 N 
ATOM     18  C   UNL     1      24.111  40.072  46.574  0.00  0.00    +0.000 C 
ATOM     19  O   UNL     1      23.920  39.267  47.484  0.00  0.00    +0.000 OA
ATOM     20  H   UNL     1      24.532  42.043  46.115  0.00  0.00    +0.000 HD
BRANCH  18  21
ATOM     21  C   UNL     1      24.396  39.666  45.125  0.00  0.00    +0.000 C 
ATOM     22  C   UNL     1      24.027  40.783  44.141  0.00  0.00    +0.000 C 
ATOM     23  C   UNL     1      23.653  38.380  44.733  0.00  0.00    +0.000 C 
ATOM     24  C   UNL     1      22.524  41.040  44.137  0.00  0.00    +0.000 C 
ATOM     25  C   UNL     1      22.137  38.573  44.654  0.00  0.00    +0.000 C 
ATOM     26  C   UNL     1      21.727  39.781  43.814  0.00  0.00    +0.000 C 
ENDBRANCH  18  21
ENDBRANCH   2  17
BRANCH   2  27
ATOM     27  C   UNL     1      25.026  42.282  49.039  0.00  0.00    +0.000 C 
ATOM     28  O   UNL     1      24.851  42.831  50.116  0.00  0.00    +0.000 OA
ATOM     29  OXT UNL     1      26.249  41.981  48.551  0.00  0.00    +0.000 OA
ENDBRANCH   2  27
TORSDOF 6
ENDMDL
MODEL 8
REMARK VINA RESULT:      -6.8      2.018      4.128
REMARK  Name = 321671
REMARK  6 active torsions:
REMARK  status: ('A' for Active; 'I' for Inactive)
REMARK    1  A    between atoms: C_3  and  O_5
REMARK    2  A    between atoms: O_5  and  C_8
REMARK    3  A    between atoms: C_14  and  C_15
REMARK    4  A    between atoms: CA_16  and  N_17
REMARK    5  A    between atoms: CA_16  and  C_18
REMARK    6  A    between atoms: C_19  and  C_23
REMARK                            x       y       z     vdW  Elec       q    Type
REMARK                         _______ _______ _______ _____ _____    ______ ____
ROOT
ATOM      1  C   UNL     1      23.446  41.179  45.756  0.00  0.00    +0.000 C 
ATOM      2  CA  UNL     1      23.291  41.425  47.070  0.00  0.00    +0.000 C 
ENDROOT
BRANCH   1   8
ATOM      3  C   UNL     1      20.222  39.656  43.454  0.00  0.00    +0.000 A 
ATOM      4  C   UNL     1      21.195  38.776  43.927  0.00  0.00    +0.000 A 
ATOM      5  C   UNL     1      20.436  41.036  43.525  0.00  0.00    +0.000 A 
ATOM      6  C   UNL     1      22.308  39.274  44.614  0.00  0.00    +0.000 A 
ATOM      7  C   UNL     1      21.535  41.531  44.228  0.00  0.00    +0.000 A 
ATOM      8  C   UNL     1      22.451  40.652  44.819  0.00  0.00    +0.000 A 
BRANCH   3   9
ATOM      9  O   UNL     1      19.053  39.113  42.959  0.00  0.00    +0.000 OA
BRANCH   9  12
ATOM     10 BR   UNL     1      16.799  41.222  43.184  0.00  0.00    +0.000 Br
ATOM     11  C   UNL     1      17.020  39.598  44.140  0.00  0.00    +0.000 A 
ATOM     12  C   UNL     1      18.087  38.731  43.878  0.00  0.00    +0.000 A 
ATOM     13  C   UNL     1      16.078  39.280  45.126  0.00  0.00    +0.000 A 
ATOM     14  C   UNL     1      18.136  37.497  44.547  0.00  0.00    +0.000 A 
ATOM     15  C   UNL     1      16.185  38.087  45.842  0.00  0.00    +0.000 A 
ATOM     16  C   UNL     1      17.205  37.190  45.542  0.00  0.00    +0.000 A 
ENDBRANCH   9  12
ENDBRANCH   3   9
ENDBRANCH   1   8
BRANCH   2  17
ATOM     17  N   UNL     1      22.075  41.292  47.722  0.00  0.00    +0.000 N 
ATOM     18  C   UNL     1      21.066  42.208  47.462  0.00  0.00    +0.000 C 
ATOM     19  O   UNL     1      21.281  43.232  46.816  0.00  0.00    +0.000 OA
ATOM     20  H   UNL     1      21.930  40.558  48.362  0.00  0.00    +0.000 HD
BRANCH  18  21
ATOM     21  C   UNL     1      19.743  41.915  48.177  0.00  0.00    +0.000 C 
ATOM     22  C   UNL     1      18.803  41.074  47.305  0.00  0.00    +0.000 C 
ATOM     23  C   UNL     1      19.024  43.203  48.602  0.00  0.00    +0.000 C 
ATOM     24  C   UNL     1      18.361  41.847  46.067  0.00  0.00    +0.000 C 
ATOM     25  C   UNL     1      18.501  44.010  47.412  0.00  0.00    +0.000 C 
ATOM     26  C   UNL     1      17.693  43.170  46.425  0.00  0.00    +0.000 C 
ENDBRANCH  18  21
ENDBRANCH   2  17
BRANCH   2  27
ATOM     27  C   UNL     1      24.514  41.837  47.833  0.00  0.00    +0.000 C 
ATOM     28  O   UNL     1      25.641  41.873  47.363  0.00  0.00    +0.000 OA
ATOM     29  OXT UNL     1      24.240  42.125  49.124  0.00  0.00    +0.000 OA
ENDBRANCH   2  27
TORSDOF 6
ENDMDL
MODEL 9
REMARK VINA RESULT:      -6.8      2.728      7.684
REMARK  Name = 321671
REMARK  6 active torsions:
REMARK  status: ('A' for Active; 'I' for Inactive)
REMARK    1  A    between atoms: C_3  and  O_5
REMARK    2  A    between atoms: O_5  and  C_8
REMARK    3  A    between atoms: C_14  and  C_15
REMARK    4  A    between atoms: CA_16  and  N_17
REMARK    5  A    between atoms: CA_16  and  C_18
REMARK    6  A    between atoms: C_19  and  C_23
REMARK                            x       y       z     vdW  Elec       q    Type
REMARK                         _______ _______ _______ _____ _____    ______ ____
ROOT
ATOM      1  C   UNL     1      19.401  42.119  44.139  0.00  0.00    +0.000 C 
ATOM      2  CA  UNL     1      18.199  41.515  44.155  0.00  0.00    +0.000 C 
ENDROOT
BRANCH   1   8
ATOM      3  C   UNL     1      22.367  41.104  47.001  0.00  0.00    +0.000 A 
ATOM      4  C   UNL     1      21.489  42.153  47.274  0.00  0.00    +0.000 A 
ATOM      5  C   UNL     1      22.429  40.564  45.713  0.00  0.00    +0.000 A 
ATOM      6  C   UNL     1      20.562  42.554  46.305  0.00  0.00    +0.000 A 
ATOM      7  C   UNL     1      21.491  40.950  44.754  0.00  0.00    +0.000 A 
ATOM      8  C   UNL     1      20.521  41.912  45.061  0.00  0.00    +0.000 A 
BRANCH   3   9
ATOM      9  O   UNL     1      23.125  40.614  48.046  0.00  0.00    +0.000 OA
BRANCH   9  12
ATOM     10 BR   UNL     1      25.845  40.649  46.569  0.00  0.00    +0.000 Br
ATOM     11  C   UNL     1      25.319  41.584  48.135  0.00  0.00    +0.000 A 
ATOM     12  C   UNL     1      24.021  41.485  48.648  0.00  0.00    +0.000 A 
ATOM     13  C   UNL     1      26.272  42.387  48.773  0.00  0.00    +0.000 A 
ATOM     14  C   UNL     1      23.666  42.283  49.748  0.00  0.00    +0.000 A 
ATOM     15  C   UNL     1      25.928  43.112  49.915  0.00  0.00    +0.000 A 
ATOM     16  C   UNL     1      24.622  43.070  50.394  0.00  0.00    +0.000 A 
ENDBRANCH   9  12
ENDBRANCH   3   9
ENDBRANCH   1   8
BRANCH   2  17
ATOM     17  N   UNL     1      17.881  40.494  45.038  0.00  0.00    +0.000 N 
ATOM     18  C   UNL     1      18.134  39.181  44.670  0.00  0.00    +0.000 C 
ATOM     19  O   UNL     1      18.457  38.888  43.520  0.00  0.00    +0.000 OA
ATOM     20  H   UNL     1      17.481  40.699  45.913  0.00  0.00    +0.000 HD
BRANCH  18  21
ATOM     21  C   UNL     1      17.817  38.146  45.755  0.00  0.00    +0.000 C 
ATOM     22  C   UNL     1      16.415  37.551  45.577  0.00  0.00    +0.000 C 
ATOM     23  C   UNL     1      17.941  38.739  47.166  0.00  0.00    +0.000 C 
ATOM     24  C   UNL     1      15.336  38.609  45.786  0.00  0.00    +0.000 C 
ATOM     25  C   UNL     1      16.856  39.774  47.471  0.00  0.00    +0.000 C 
ATOM     26  C   UNL     1      15.447  39.279  47.151  0.00  0.00    +0.000 C 
ENDBRANCH  18  21
ENDBRANCH   2  17
BRANCH   2  27
ATOM     27  C   UNL     1      17.178  42.009  43.175  0.00  0.00    +0.000 C 
ATOM     28  O   UNL     1      16.865  41.424  42.150  0.00  0.00    +0.000 OA
ATOM     29  OXT UNL     1      16.667  43.209  43.528  0.00  0.00    +0.000 OA
ENDBRANCH   2  27
TORSDOF 6
ENDMDL
