MODEL 1
REMARK VINA RESULT:      -7.3      0.000      0.000
REMARK  Name = 321038
REMARK  6 active torsions:
REMARK  status: ('A' for Active; 'I' for Inactive)
REMARK    1  A    between atoms: C_3  and  O_5
REMARK    2  A    between atoms: O_5  and  C_8
REMARK    3  A    between atoms: C_14  and  C_15
REMARK    4  A    between atoms: CA_16  and  N_17
REMARK    5  A    between atoms: CA_16  and  C_18
REMARK    6  A    between atoms: C_19  and  C_23
REMARK                            x       y       z     vdW  Elec       q    Type
REMARK                         _______ _______ _______ _____ _____    ______ ____
ROOT
ATOM      1  C   UNL     1      20.173  42.600  43.538  0.00  0.00    +0.000 C 
ATOM      2  CA  UNL     1      19.053  41.958  43.159  0.00  0.00    +0.000 C 
ENDROOT
BRANCH   1   8
ATOM      3  C   UNL     1      22.452  41.312  46.874  0.00  0.00    +0.000 A 
ATOM      4  C   UNL     1      21.956  42.615  46.852  0.00  0.00    +0.000 A 
ATOM      5  C   UNL     1      22.429  40.539  45.711  0.00  0.00    +0.000 A 
ATOM      6  C   UNL     1      21.293  43.087  45.712  0.00  0.00    +0.000 A 
ATOM      7  C   UNL     1      21.746  41.001  44.583  0.00  0.00    +0.000 A 
ATOM      8  C   UNL     1      21.132  42.259  44.596  0.00  0.00    +0.000 A 
BRANCH   3   9
ATOM      9  O   UNL     1      22.923  40.826  48.078  0.00  0.00    +0.000 OA
BRANCH   9  12
ATOM     10 BR   UNL     1      25.698  40.648  46.724  0.00  0.00    +0.000 Br
ATOM     11  C   UNL     1      25.190  41.580  48.297  0.00  0.00    +0.000 A 
ATOM     12  C   UNL     1      23.866  41.587  48.753  0.00  0.00    +0.000 A 
ATOM     13  C   UNL     1      26.182  42.273  49.000  0.00  0.00    +0.000 A 
ATOM     14  C   UNL     1      23.538  42.380  49.865  0.00  0.00    +0.000 A 
ATOM     15  C   UNL     1      25.856  42.991  50.153  0.00  0.00    +0.000 A 
ATOM     16  C   UNL     1      24.531  43.056  50.575  0.00  0.00    +0.000 A 
ENDBRANCH   9  12
ENDBRANCH   3   9
ENDBRANCH   1   8
BRANCH   2  17
ATOM     17  N   UNL     1      18.643  40.710  43.598  0.00  0.00    +0.000 N 
ATOM     18  C   UNL     1      17.746  40.583  44.647  0.00  0.00    +0.000 C 
ATOM     19  O   UNL     1      17.362  41.520  45.334  0.00  0.00    +0.000 OA
ATOM     20  H   UNL     1      18.993  39.902  43.157  0.00  0.00    +0.000 HD
BRANCH  18  21
ATOM     21  C   UNL     1      17.355  39.206  45.050  0.00  0.00    +0.000 A 
ATOM     22  C   UNL     1      17.611  38.169  44.140  0.00  0.00    +0.000 A 
ATOM     23  C   UNL     1      16.831  38.908  46.318  0.00  0.00    +0.000 A 
ATOM     24  C   UNL     1      17.369  36.851  44.504  0.00  0.00    +0.000 A 
ATOM     25  C   UNL     1      16.597  37.573  46.674  0.00  0.00    +0.000 A 
ATOM     26  F   UNL     1      17.633  35.870  43.630  0.00  0.00    +0.000 F 
ATOM     27  C   UNL     1      16.876  36.552  45.767  0.00  0.00    +0.000 A 
ATOM     28  F   UNL     1      16.679  35.278  46.128  0.00  0.00    +0.000 F 
ENDBRANCH  18  21
ENDBRANCH   2  17
BRANCH   2  29
ATOM     29  C   UNL     1      18.189  42.685  42.173  0.00  0.00    +0.000 C 
ATOM     30  O   UNL     1      18.335  43.845  41.828  0.00  0.00    +0.000 OA
ATOM     31  OXT UNL     1      17.201  41.889  41.705  0.00  0.00    +0.000 OA
ENDBRANCH   2  29
TORSDOF 6
ENDMDL
MODEL 2
REMARK VINA RESULT:      -7.0      4.285      8.148
REMARK  Name = 321038
REMARK  6 active torsions:
REMARK  status: ('A' for Active; 'I' for Inactive)
REMARK    1  A    between atoms: C_3  and  O_5
REMARK    2  A    between atoms: O_5  and  C_8
REMARK    3  A    between atoms: C_14  and  C_15
REMARK    4  A    between atoms: CA_16  and  N_17
REMARK    5  A    between atoms: CA_16  and  C_18
REMARK    6  A    between atoms: C_19  and  C_23
REMARK                            x       y       z     vdW  Elec       q    Type
REMARK                         _______ _______ _______ _____ _____    ______ ____
ROOT
ATOM      1  C   UNL     1      23.228  38.840  44.591  0.00  0.00    +0.000 C 
ATOM      2  CA  UNL     1      23.863  38.679  45.765  0.00  0.00    +0.000 C 
ENDROOT
BRANCH   1   8
ATOM      3  C   UNL     1      20.208  41.729  43.874  0.00  0.00    +0.000 A 
ATOM      4  C   UNL     1      20.190  40.534  43.155  0.00  0.00    +0.000 A 
ATOM      5  C   UNL     1      21.339  42.079  44.613  0.00  0.00    +0.000 A 
ATOM      6  C   UNL     1      21.238  39.617  43.305  0.00  0.00    +0.000 A 
ATOM      7  C   UNL     1      22.374  41.155  44.781  0.00  0.00    +0.000 A 
ATOM      8  C   UNL     1      22.304  39.899  44.166  0.00  0.00    +0.000 A 
BRANCH   3   9
ATOM      9  O   UNL     1      19.069  42.510  43.846  0.00  0.00    +0.000 OA
BRANCH   9  12
ATOM     10 BR   UNL     1      16.812  40.398  43.957  0.00  0.00    +0.000 Br
ATOM     11  C   UNL     1      17.240  41.760  45.206  0.00  0.00    +0.000 A 
ATOM     12  C   UNL     1      18.332  42.615  45.016  0.00  0.00    +0.000 A 
ATOM     13  C   UNL     1      16.428  41.892  46.339  0.00  0.00    +0.000 A 
ATOM     14  C   UNL     1      18.654  43.535  46.028  0.00  0.00    +0.000 A 
ATOM     15  C   UNL     1      16.713  42.867  47.298  0.00  0.00    +0.000 A 
ATOM     16  C   UNL     1      17.835  43.677  47.149  0.00  0.00    +0.000 A 
ENDBRANCH   9  12
ENDBRANCH   3   9
ENDBRANCH   1   8
BRANCH   2  17
ATOM     17  N   UNL     1      23.902  39.598  46.802  0.00  0.00    +0.000 N 
ATOM     18  C   UNL     1      24.920  40.534  46.885  0.00  0.00    +0.000 C 
ATOM     19  O   UNL     1      25.903  40.541  46.156  0.00  0.00    +0.000 OA
ATOM     20  H   UNL     1      23.196  39.585  47.488  0.00  0.00    +0.000 HD
BRANCH  18  21
ATOM     21  C   UNL     1      24.883  41.486  48.027  0.00  0.00    +0.000 A 
ATOM     22  C   UNL     1      23.626  41.793  48.571  0.00  0.00    +0.000 A 
ATOM     23  C   UNL     1      26.045  42.006  48.618  0.00  0.00    +0.000 A 
ATOM     24  C   UNL     1      23.538  42.587  49.707  0.00  0.00    +0.000 A 
ATOM     25  C   UNL     1      25.941  42.802  49.767  0.00  0.00    +0.000 A 
ATOM     26  F   UNL     1      22.332  42.860  50.225  0.00  0.00    +0.000 F 
ATOM     27  C   UNL     1      24.688  43.081  50.308  0.00  0.00    +0.000 A 
ATOM     28  F   UNL     1      24.601  43.817  51.424  0.00  0.00    +0.000 F 
ENDBRANCH  18  21
ENDBRANCH   2  17
BRANCH   2  29
ATOM     29  C   UNL     1      24.582  37.376  45.943  0.00  0.00    +0.000 C 
ATOM     30  O   UNL     1      25.610  37.054  45.370  0.00  0.00    +0.000 OA
ATOM     31  OXT UNL     1      23.940  36.576  46.824  0.00  0.00    +0.000 OA
ENDBRANCH   2  29
TORSDOF 6
ENDMDL
MODEL 3
REMARK VINA RESULT:      -6.4      3.604      7.242
REMARK  Name = 321038
REMARK  6 active torsions:
REMARK  status: ('A' for Active; 'I' for Inactive)
REMARK    1  A    between atoms: C_3  and  O_5
REMARK    2  A    between atoms: O_5  and  C_8
REMARK    3  A    between atoms: C_14  and  C_15
REMARK    4  A    between atoms: CA_16  and  N_17
REMARK    5  A    between atoms: CA_16  and  C_18
REMARK    6  A    between atoms: C_19  and  C_23
REMARK                            x       y       z     vdW  Elec       q    Type
REMARK                         _______ _______ _______ _____ _____    ______ ____
ROOT
ATOM      1  C   UNL     1      23.956  40.825  46.044  0.00  0.00    +0.000 C 
ATOM      2  CA  UNL     1      23.666  41.702  47.021  0.00  0.00    +0.000 C 
ENDROOT
BRANCH   1   8
ATOM      3  C   UNL     1      20.948  39.333  43.455  0.00  0.00    +0.000 A 
ATOM      4  C   UNL     1      21.651  38.441  44.265  0.00  0.00    +0.000 A 
ATOM      5  C   UNL     1      21.406  40.643  43.301  0.00  0.00    +0.000 A 
ATOM      6  C   UNL     1      22.716  38.905  45.046  0.00  0.00    +0.000 A 
ATOM      7  C   UNL     1      22.454  41.111  44.098  0.00  0.00    +0.000 A 
ATOM      8  C   UNL     1      23.082  40.255  45.011  0.00  0.00    +0.000 A 
BRANCH   3   9
ATOM      9  O   UNL     1      19.790  38.876  42.855  0.00  0.00    +0.000 OA
BRANCH   9  12
ATOM     10 BR   UNL     1      18.035  41.422  42.811  0.00  0.00    +0.000 Br
ATOM     11  C   UNL     1      17.786  39.812  43.783  0.00  0.00    +0.000 A 
ATOM     12  C   UNL     1      18.667  38.731  43.654  0.00  0.00    +0.000 A 
ATOM     13  C   UNL     1      16.685  39.726  44.643  0.00  0.00    +0.000 A 
ATOM     14  C   UNL     1      18.368  37.532  44.323  0.00  0.00    +0.000 A 
ATOM     15  C   UNL     1      16.446  38.555  45.366  0.00  0.00    +0.000 A 
ATOM     16  C   UNL     1      17.280  37.454  45.193  0.00  0.00    +0.000 A 
ENDBRANCH   9  12
ENDBRANCH   3   9
ENDBRANCH   1   8
BRANCH   2  17
ATOM     17  N   UNL     1      22.476  42.397  47.165  0.00  0.00    +0.000 N 
ATOM     18  C   UNL     1      21.279  41.727  47.366  0.00  0.00    +0.000 C 
ATOM     19  O   UNL     1      21.158  40.511  47.300  0.00  0.00    +0.000 OA
ATOM     20  H   UNL     1      22.481  43.380  47.124  0.00  0.00    +0.000 HD
BRANCH  18  21
ATOM     21  C   UNL     1      20.050  42.551  47.515  0.00  0.00    +0.000 A 
ATOM     22  C   UNL     1      19.303  42.811  46.355  0.00  0.00    +0.000 A 
ATOM     23  C   UNL     1      19.580  42.991  48.761  0.00  0.00    +0.000 A 
ATOM     24  C   UNL     1      18.090  43.480  46.448  0.00  0.00    +0.000 A 
ATOM     25  C   UNL     1      18.351  43.660  48.841  0.00  0.00    +0.000 A 
ATOM     26  F   UNL     1      17.379  43.708  45.335  0.00  0.00    +0.000 F 
ATOM     27  C   UNL     1      17.610  43.893  47.684  0.00  0.00    +0.000 A 
ATOM     28  F   UNL     1      16.422  44.506  47.774  0.00  0.00    +0.000 F 
ENDBRANCH  18  21
ENDBRANCH   2  17
BRANCH   2  29
ATOM     29  C   UNL     1      24.747  41.926  48.036  0.00  0.00    +0.000 C 
ATOM     30  O   UNL     1      25.942  41.953  47.799  0.00  0.00    +0.000 OA
ATOM     31  OXT UNL     1      24.231  42.090  49.275  0.00  0.00    +0.000 OA
ENDBRANCH   2  29
TORSDOF 6
ENDMDL
MODEL 4
REMARK VINA RESULT:      -5.9      1.790      2.436
REMARK  Name = 321038
REMARK  6 active torsions:
REMARK  status: ('A' for Active; 'I' for Inactive)
REMARK    1  A    between atoms: C_3  and  O_5
REMARK    2  A    between atoms: O_5  and  C_8
REMARK    3  A    between atoms: C_14  and  C_15
REMARK    4  A    between atoms: CA_16  and  N_17
REMARK    5  A    between atoms: CA_16  and  C_18
REMARK    6  A    between atoms: C_19  and  C_23
REMARK                            x       y       z     vdW  Elec       q    Type
REMARK                         _______ _______ _______ _____ _____    ______ ____
ROOT
ATOM      1  C   UNL     1      18.891  43.531  45.288  0.00  0.00    +0.000 C 
ATOM      2  CA  UNL     1      17.818  42.813  44.911  0.00  0.00    +0.000 C 
ENDROOT
BRANCH   1   8
ATOM      3  C   UNL     1      21.951  41.874  47.709  0.00  0.00    +0.000 A 
ATOM      4  C   UNL     1      20.718  42.177  48.286  0.00  0.00    +0.000 A 
ATOM      5  C   UNL     1      22.260  42.352  46.435  0.00  0.00    +0.000 A 
ATOM      6  C   UNL     1      19.735  42.821  47.524  0.00  0.00    +0.000 A 
ATOM      7  C   UNL     1      21.271  42.973  45.667  0.00  0.00    +0.000 A 
ATOM      8  C   UNL     1      19.988  43.167  46.192  0.00  0.00    +0.000 A 
BRANCH   3   9
ATOM      9  O   UNL     1      22.814  41.071  48.430  0.00  0.00    +0.000 OA
BRANCH   9  12
ATOM     10 BR   UNL     1      24.060  42.957  50.541  0.00  0.00    +0.000 Br
ATOM     11  C   UNL     1      24.886  42.102  49.062  0.00  0.00    +0.000 A 
ATOM     12  C   UNL     1      24.174  41.239  48.220  0.00  0.00    +0.000 A 
ATOM     13  C   UNL     1      26.243  42.355  48.830  0.00  0.00    +0.000 A 
ATOM     14  C   UNL     1      24.869  40.559  47.206  0.00  0.00    +0.000 A 
ATOM     15  C   UNL     1      26.902  41.735  47.766  0.00  0.00    +0.000 A 
ATOM     16  C   UNL     1      26.218  40.825  46.964  0.00  0.00    +0.000 A 
ENDBRANCH   9  12
ENDBRANCH   3   9
ENDBRANCH   1   8
BRANCH   2  17
ATOM     17  N   UNL     1      17.601  41.472  45.182  0.00  0.00    +0.000 N 
ATOM     18  C   UNL     1      18.194  40.484  44.413  0.00  0.00    +0.000 C 
ATOM     19  O   UNL     1      18.824  40.703  43.388  0.00  0.00    +0.000 OA
ATOM     20  H   UNL     1      17.017  41.218  45.934  0.00  0.00    +0.000 HD
BRANCH  18  21
ATOM     21  C   UNL     1      17.910  39.070  44.777  0.00  0.00    +0.000 A 
ATOM     22  C   UNL     1      17.198  38.839  45.964  0.00  0.00    +0.000 A 
ATOM     23  C   UNL     1      18.249  37.991  43.946  0.00  0.00    +0.000 A 
ATOM     24  C   UNL     1      16.808  37.549  46.300  0.00  0.00    +0.000 A 
ATOM     25  C   UNL     1      17.845  36.695  44.294  0.00  0.00    +0.000 A 
ATOM     26  F   UNL     1      16.115  37.346  47.428  0.00  0.00    +0.000 F 
ATOM     27  C   UNL     1      17.119  36.484  45.466  0.00  0.00    +0.000 A 
ATOM     28  F   UNL     1      16.711  35.246  45.773  0.00  0.00    +0.000 F 
ENDBRANCH  18  21
ENDBRANCH   2  17
BRANCH   2  29
ATOM     29  C   UNL     1      16.779  43.558  44.129  0.00  0.00    +0.000 C 
ATOM     30  O   UNL     1      16.245  44.598  44.476  0.00  0.00    +0.000 OA
ATOM     31  OXT UNL     1      16.487  42.924  42.970  0.00  0.00    +0.000 OA
ENDBRANCH   2  29
TORSDOF 6
ENDMDL
MODEL 5
REMARK VINA RESULT:      -4.8      3.464      4.522
REMARK  Name = 321038
REMARK  6 active torsions:
REMARK  status: ('A' for Active; 'I' for Inactive)
REMARK    1  A    between atoms: C_3  and  O_5
REMARK    2  A    between atoms: O_5  and  C_8
REMARK    3  A    between atoms: C_14  and  C_15
REMARK    4  A    between atoms: CA_16  and  N_17
REMARK    5  A    between atoms: CA_16  and  C_18
REMARK    6  A    between atoms: C_19  and  C_23
REMARK                            x       y       z     vdW  Elec       q    Type
REMARK                         _______ _______ _______ _____ _____    ______ ____
ROOT
ATOM      1  C   UNL     1      20.671  38.700  44.159  0.00  0.00    +0.000 C 
ATOM      2  CA  UNL     1      19.466  39.283  44.285  0.00  0.00    +0.000 C 
ENDROOT
BRANCH   1   8
ATOM      3  C   UNL     1      24.253  40.231  45.834  0.00  0.00    +0.000 A 
ATOM      4  C   UNL     1      23.421  41.086  45.111  0.00  0.00    +0.000 A 
ATOM      5  C   UNL     1      24.049  38.851  45.779  0.00  0.00    +0.000 A 
ATOM      6  C   UNL     1      22.290  40.571  44.465  0.00  0.00    +0.000 A 
ATOM      7  C   UNL     1      22.908  38.341  45.154  0.00  0.00    +0.000 A 
ATOM      8  C   UNL     1      21.997  39.205  44.535  0.00  0.00    +0.000 A 
BRANCH   3   9
ATOM      9  O   UNL     1      25.240  40.805  46.611  0.00  0.00    +0.000 OA
BRANCH   9  12
ATOM     10 BR   UNL     1      27.655  41.534  48.400  0.00  0.00    +0.000 Br
ATOM     11  C   UNL     1      25.810  41.877  48.681  0.00  0.00    +0.000 A 
ATOM     12  C   UNL     1      24.842  41.508  47.738  0.00  0.00    +0.000 A 
ATOM     13  C   UNL     1      25.434  42.518  49.867  0.00  0.00    +0.000 A 
ATOM     14  C   UNL     1      23.507  41.882  47.961  0.00  0.00    +0.000 A 
ATOM     15  C   UNL     1      24.090  42.810  50.112  0.00  0.00    +0.000 A 
ATOM     16  C   UNL     1      23.129  42.505  49.151  0.00  0.00    +0.000 A 
ENDBRANCH   9  12
ENDBRANCH   3   9
ENDBRANCH   1   8
BRANCH   2  17
ATOM     17  N   UNL     1      19.198  40.460  44.965  0.00  0.00    +0.000 N 
ATOM     18  C   UNL     1      18.312  40.481  46.030  0.00  0.00    +0.000 C 
ATOM     19  O   UNL     1      17.616  39.530  46.359  0.00  0.00    +0.000 OA
ATOM     20  H   UNL     1      19.645  41.292  44.689  0.00  0.00    +0.000 HD
BRANCH  18  21
ATOM     21  C   UNL     1      18.087  41.786  46.708  0.00  0.00    +0.000 A 
ATOM     22  C   UNL     1      18.828  42.046  47.871  0.00  0.00    +0.000 A 
ATOM     23  C   UNL     1      17.241  42.776  46.183  0.00  0.00    +0.000 A 
ATOM     24  C   UNL     1      18.742  43.289  48.484  0.00  0.00    +0.000 A 
ATOM     25  C   UNL     1      17.168  44.028  46.809  0.00  0.00    +0.000 A 
ATOM     26  F   UNL     1      19.468  43.529  49.585  0.00  0.00    +0.000 F 
ATOM     27  C   UNL     1      17.927  44.278  47.952  0.00  0.00    +0.000 A 
ATOM     28  F   UNL     1      17.874  45.488  48.525  0.00  0.00    +0.000 F 
ENDBRANCH  18  21
ENDBRANCH   2  17
BRANCH   2  29
ATOM     29  C   UNL     1      18.327  38.575  43.615  0.00  0.00    +0.000 C 
ATOM     30  O   UNL     1      18.140  37.370  43.628  0.00  0.00    +0.000 OA
ATOM     31  OXT UNL     1      17.517  39.445  42.971  0.00  0.00    +0.000 OA
ENDBRANCH   2  29
TORSDOF 6
ENDMDL
MODEL 6
REMARK VINA RESULT:      -4.6      3.639      5.057
REMARK  Name = 321038
REMARK  6 active torsions:
REMARK  status: ('A' for Active; 'I' for Inactive)
REMARK    1  A    between atoms: C_3  and  O_5
REMARK    2  A    between atoms: O_5  and  C_8
REMARK    3  A    between atoms: C_14  and  C_15
REMARK    4  A    between atoms: CA_16  and  N_17
REMARK    5  A    between atoms: CA_16  and  C_18
REMARK    6  A    between atoms: C_19  and  C_23
REMARK                            x       y       z     vdW  Elec       q    Type
REMARK                         _______ _______ _______ _____ _____    ______ ____
ROOT
ATOM      1  C   UNL     1      19.018  37.969  44.401  0.00  0.00    +0.000 C 
ATOM      2  CA  UNL     1      17.983  38.422  45.132  0.00  0.00    +0.000 C 
ENDROOT
BRANCH   1   8
ATOM      3  C   UNL     1      22.672  40.092  44.061  0.00  0.00    +0.000 A 
ATOM      4  C   UNL     1      21.504  40.664  43.556  0.00  0.00    +0.000 A 
ATOM      5  C   UNL     1      22.686  38.744  44.424  0.00  0.00    +0.000 A 
ATOM      6  C   UNL     1      20.311  39.931  43.567  0.00  0.00    +0.000 A 
ATOM      7  C   UNL     1      21.491  38.021  44.457  0.00  0.00    +0.000 A 
ATOM      8  C   UNL     1      20.289  38.627  44.074  0.00  0.00    +0.000 A 
BRANCH   3   9
ATOM      9  O   UNL     1      23.774  40.912  44.209  0.00  0.00    +0.000 OA
BRANCH   9  12
ATOM     10 BR   UNL     1      21.888  42.429  46.135  0.00  0.00    +0.000 Br
ATOM     11  C   UNL     1      23.619  41.726  46.461  0.00  0.00    +0.000 A 
ATOM     12  C   UNL     1      24.326  41.024  45.476  0.00  0.00    +0.000 A 
ATOM     13  C   UNL     1      24.183  41.924  47.727  0.00  0.00    +0.000 A 
ATOM     14  C   UNL     1      25.559  40.442  45.814  0.00  0.00    +0.000 A 
ATOM     15  C   UNL     1      25.446  41.410  48.023  0.00  0.00    +0.000 A 
ATOM     16  C   UNL     1      26.127  40.655  47.071  0.00  0.00    +0.000 A 
ENDBRANCH   9  12
ENDBRANCH   3   9
ENDBRANCH   1   8
BRANCH   2  17
ATOM     17  N   UNL     1      17.967  39.582  45.889  0.00  0.00    +0.000 N 
ATOM     18  C   UNL     1      17.498  40.772  45.357  0.00  0.00    +0.000 C 
ATOM     19  O   UNL     1      17.198  40.924  44.181  0.00  0.00    +0.000 OA
ATOM     20  H   UNL     1      18.293  39.559  46.818  0.00  0.00    +0.000 HD
BRANCH  18  21
ATOM     21  C   UNL     1      17.511  41.969  46.241  0.00  0.00    +0.000 A 
ATOM     22  C   UNL     1      18.451  41.992  47.282  0.00  0.00    +0.000 A 
ATOM     23  C   UNL     1      16.692  43.086  46.016  0.00  0.00    +0.000 A 
ATOM     24  C   UNL     1      18.585  43.127  48.070  0.00  0.00    +0.000 A 
ATOM     25  C   UNL     1      16.841  44.227  46.815  0.00  0.00    +0.000 A 
ATOM     26  F   UNL     1      19.498  43.141  49.052  0.00  0.00    +0.000 F 
ATOM     27  C   UNL     1      17.794  44.243  47.833  0.00  0.00    +0.000 A 
ATOM     28  F   UNL     1      17.951  45.350  48.571  0.00  0.00    +0.000 F 
ENDBRANCH  18  21
ENDBRANCH   2  17
BRANCH   2  29
ATOM     29  C   UNL     1      16.747  37.573  45.105  0.00  0.00    +0.000 C 
ATOM     30  O   UNL     1      15.694  37.843  45.656  0.00  0.00    +0.000 OA
ATOM     31  OXT UNL     1      16.944  36.442  44.389  0.00  0.00    +0.000 OA
ENDBRANCH   2  29
TORSDOF 6
ENDMDL
MODEL 7
REMARK VINA RESULT:      -4.6      3.467      4.541
REMARK  Name = 321038
REMARK  6 active torsions:
REMARK  status: ('A' for Active; 'I' for Inactive)
REMARK    1  A    between atoms: C_3  and  O_5
REMARK    2  A    between atoms: O_5  and  C_8
REMARK    3  A    between atoms: C_14  and  C_15
REMARK    4  A    between atoms: CA_16  and  N_17
REMARK    5  A    between atoms: CA_16  and  C_18
REMARK    6  A    between atoms: C_19  and  C_23
REMARK                            x       y       z     vdW  Elec       q    Type
REMARK                         _______ _______ _______ _____ _____    ______ ____
ROOT
ATOM      1  C   UNL     1      20.956  38.640  44.266  0.00  0.00    +0.000 C 
ATOM      2  CA  UNL     1      19.769  39.270  44.331  0.00  0.00    +0.000 C 
ENDROOT
BRANCH   1   8
ATOM      3  C   UNL     1      24.527  40.185  45.952  0.00  0.00    +0.000 A 
ATOM      4  C   UNL     1      23.799  40.974  45.061  0.00  0.00    +0.000 A 
ATOM      5  C   UNL     1      24.234  38.826  46.077  0.00  0.00    +0.000 A 
ATOM      6  C   UNL     1      22.677  40.438  44.417  0.00  0.00    +0.000 A 
ATOM      7  C   UNL     1      23.100  38.298  45.452  0.00  0.00    +0.000 A 
ATOM      8  C   UNL     1      22.288  39.116  44.658  0.00  0.00    +0.000 A 
BRANCH   3   9
ATOM      9  O   UNL     1      25.502  40.806  46.707  0.00  0.00    +0.000 OA
BRANCH   9  12
ATOM     10 BR   UNL     1      27.885  41.484  48.559  0.00  0.00    +0.000 Br
ATOM     11  C   UNL     1      26.043  41.879  48.784  0.00  0.00    +0.000 A 
ATOM     12  C   UNL     1      25.092  41.529  47.818  0.00  0.00    +0.000 A 
ATOM     13  C   UNL     1      25.650  42.539  49.955  0.00  0.00    +0.000 A 
ATOM     14  C   UNL     1      23.761  41.941  47.999  0.00  0.00    +0.000 A 
ATOM     15  C   UNL     1      24.309  42.869  50.159  0.00  0.00    +0.000 A 
ATOM     16  C   UNL     1      23.368  42.583  49.173  0.00  0.00    +0.000 A 
ENDBRANCH   9  12
ENDBRANCH   3   9
ENDBRANCH   1   8
BRANCH   2  17
ATOM     17  N   UNL     1      19.525  40.484  44.951  0.00  0.00    +0.000 N 
ATOM     18  C   UNL     1      18.892  40.541  46.183  0.00  0.00    +0.000 C 
ATOM     19  O   UNL     1      18.394  39.572  46.740  0.00  0.00    +0.000 OA
ATOM     20  H   UNL     1      19.807  41.319  44.511  0.00  0.00    +0.000 HD
BRANCH  18  21
ATOM     21  C   UNL     1      18.674  41.886  46.779  0.00  0.00    +0.000 A 
ATOM     22  C   UNL     1      17.538  42.599  46.367  0.00  0.00    +0.000 A 
ATOM     23  C   UNL     1      19.502  42.412  47.783  0.00  0.00    +0.000 A 
ATOM     24  C   UNL     1      17.223  43.810  46.969  0.00  0.00    +0.000 A 
ATOM     25  C   UNL     1      19.169  43.633  48.386  0.00  0.00    +0.000 A 
ATOM     26  F   UNL     1      16.127  44.473  46.576  0.00  0.00    +0.000 F 
ATOM     27  C   UNL     1      18.027  44.320  47.980  0.00  0.00    +0.000 A 
ATOM     28  F   UNL     1      17.700  45.470  48.584  0.00  0.00    +0.000 F 
ENDBRANCH  18  21
ENDBRANCH   2  17
BRANCH   2  29
ATOM     29  C   UNL     1      18.625  38.571  43.660  0.00  0.00    +0.000 C 
ATOM     30  O   UNL     1      18.435  37.367  43.661  0.00  0.00    +0.000 OA
ATOM     31  OXT UNL     1      17.812  39.451  43.032  0.00  0.00    +0.000 OA
ENDBRANCH   2  29
TORSDOF 6
ENDMDL
