MODEL 1
REMARK VINA RESULT:      -8.0      0.000      0.000
REMARK  Name = 323613
REMARK  7 active torsions:
REMARK  status: ('A' for Active; 'I' for Inactive)
REMARK    1  A    between atoms: C_3  and  O_5
REMARK    2  A    between atoms: O_5  and  C_8
REMARK    3  A    between atoms: C_14  and  C_15
REMARK    4  A    between atoms: CA_16  and  N_17
REMARK    5  A    between atoms: CA_16  and  C_18
REMARK    6  A    between atoms: C_19  and  C_23
REMARK    7  A    between atoms: C_23  and  O_24
REMARK                            x       y       z     vdW  Elec       q    Type
REMARK                         _______ _______ _______ _____ _____    ______ ____
ROOT
ATOM      1  C   UNL     1      18.939  42.234  46.013  0.00  0.00    +0.000 A 
ATOM      2  C   UNL     1      19.941  42.786  45.218  0.00  0.00    +0.000 A 
ATOM      3  C   UNL     1      19.166  42.053  47.380  0.00  0.00    +0.000 A 
ATOM      4  C   UNL     1      21.237  42.907  45.735  0.00  0.00    +0.000 A 
ATOM      5  C   UNL     1      20.448  42.216  47.907  0.00  0.00    +0.000 A 
ATOM      6  C   UNL     1      21.508  42.565  47.064  0.00  0.00    +0.000 A 
ENDROOT
BRANCH   6   7
ATOM      7  C   UNL     1      22.887  42.371  47.527  0.00  0.00    +0.000 C 
ATOM      8  CA  UNL     1      23.724  41.349  47.297  0.00  0.00    +0.000 C 
BRANCH   8   9
ATOM      9  N   UNL     1      23.396  40.168  46.656  0.00  0.00    +0.000 N 
ATOM     10  C   UNL     1      23.551  39.948  45.300  0.00  0.00    +0.000 C 
ATOM     11  O   UNL     1      23.833  40.809  44.473  0.00  0.00    +0.000 OA
ATOM     12  H   UNL     1      23.028  39.436  47.201  0.00  0.00    +0.000 HD
BRANCH  10  13
ATOM     13  C   UNL     1      23.184  38.523  44.893  0.00  0.00    +0.000 C 
BRANCH  13  14
ATOM     14  O   UNL     1      23.719  37.562  45.793  0.00  0.00    +0.000 OA
ATOM     15  H   UNL     1      23.505  37.818  46.704  0.00  0.00    +0.000 HD
ENDBRANCH  13  14
ENDBRANCH  10  13
ENDBRANCH   8   9
BRANCH   8  16
ATOM     16  C   UNL     1      25.150  41.547  47.712  0.00  0.00    +0.000 C 
ATOM     17  O   UNL     1      26.123  41.131  47.120  0.00  0.00    +0.000 OA
ATOM     18  OXT UNL     1      25.226  42.256  48.865  0.00  0.00    +0.000 OA
ENDBRANCH   8  16
ENDBRANCH   6   7
BRANCH   1  19
ATOM     19  O   UNL     1      17.708  41.826  45.570  0.00  0.00    +0.000 OA
BRANCH  19  22
ATOM     20  I   UNL     1      19.481  39.315  43.672  0.00  0.00    +0.000 I 
ATOM     21  C   UNL     1      17.768  39.391  44.904  0.00  0.00    +0.000 A 
ATOM     22  C   UNL     1      17.299  40.509  45.613  0.00  0.00    +0.000 A 
ATOM     23  C   UNL     1      17.173  38.131  45.114  0.00  0.00    +0.000 A 
ATOM     24  C   UNL     1      16.350  40.296  46.629  0.00  0.00    +0.000 A 
ATOM     25  C   UNL     1      16.209  37.951  46.105  0.00  0.00    +0.000 A 
ATOM     26  C   UNL     1      15.823  39.029  46.889  0.00  0.00    +0.000 A 
ENDBRANCH  19  22
ENDBRANCH   1  19
TORSDOF 7
ENDMDL
MODEL 2
REMARK VINA RESULT:      -7.8      1.739      2.077
REMARK  Name = 323613
REMARK  7 active torsions:
REMARK  status: ('A' for Active; 'I' for Inactive)
REMARK    1  A    between atoms: C_3  and  O_5
REMARK    2  A    between atoms: O_5  and  C_8
REMARK    3  A    between atoms: C_14  and  C_15
REMARK    4  A    between atoms: CA_16  and  N_17
REMARK    5  A    between atoms: CA_16  and  C_18
REMARK    6  A    between atoms: C_19  and  C_23
REMARK    7  A    between atoms: C_23  and  O_24
REMARK                            x       y       z     vdW  Elec       q    Type
REMARK                         _______ _______ _______ _____ _____    ______ ____
ROOT
ATOM      1  C   UNL     1      20.146  41.213  45.601  0.00  0.00    +0.000 A 
ATOM      2  C   UNL     1      20.923  42.265  45.121  0.00  0.00    +0.000 A 
ATOM      3  C   UNL     1      20.360  40.734  46.896  0.00  0.00    +0.000 A 
ATOM      4  C   UNL     1      22.067  42.651  45.829  0.00  0.00    +0.000 A 
ATOM      5  C   UNL     1      21.476  41.150  47.623  0.00  0.00    +0.000 A 
ATOM      6  C   UNL     1      22.382  42.052  47.054  0.00  0.00    +0.000 A 
ENDROOT
BRANCH   6   7
ATOM      7  C   UNL     1      23.717  42.196  47.644  0.00  0.00    +0.000 C 
ATOM      8  CA  UNL     1      24.821  41.465  47.433  0.00  0.00    +0.000 C 
BRANCH   8   9
ATOM      9  N   UNL     1      24.889  40.306  46.682  0.00  0.00    +0.000 N 
ATOM     10  C   UNL     1      24.228  39.133  46.998  0.00  0.00    +0.000 C 
ATOM     11  O   UNL     1      23.643  38.915  48.054  0.00  0.00    +0.000 OA
ATOM     12  H   UNL     1      25.444  40.317  45.870  0.00  0.00    +0.000 HD
BRANCH  10  13
ATOM     13  C   UNL     1      24.424  38.049  45.941  0.00  0.00    +0.000 C 
BRANCH  13  14
ATOM     14  O   UNL     1      23.322  37.979  45.046  0.00  0.00    +0.000 OA
ATOM     15  H   UNL     1      23.531  38.470  44.236  0.00  0.00    +0.000 HD
ENDBRANCH  13  14
ENDBRANCH  10  13
ENDBRANCH   8   9
BRANCH   8  16
ATOM     16  C   UNL     1      26.097  42.003  48.007  0.00  0.00    +0.000 C 
ATOM     17  O   UNL     1      26.815  41.426  48.796  0.00  0.00    +0.000 OA
ATOM     18  OXT UNL     1      26.355  43.247  47.536  0.00  0.00    +0.000 OA
ENDBRANCH   8  16
ENDBRANCH   6   7
BRANCH   1  19
ATOM     19  O   UNL     1      19.160  40.569  44.899  0.00  0.00    +0.000 OA
BRANCH  19  22
ATOM     20  I   UNL     1      16.863  42.736  46.653  0.00  0.00    +0.000 I 
ATOM     21  C   UNL     1      17.064  40.664  46.303  0.00  0.00    +0.000 A 
ATOM     22  C   UNL     1      18.037  40.043  45.503  0.00  0.00    +0.000 A 
ATOM     23  C   UNL     1      15.999  39.902  46.824  0.00  0.00    +0.000 A 
ATOM     24  C   UNL     1      17.823  38.706  45.121  0.00  0.00    +0.000 A 
ATOM     25  C   UNL     1      15.826  38.568  46.458  0.00  0.00    +0.000 A 
ATOM     26  C   UNL     1      16.720  37.979  45.574  0.00  0.00    +0.000 A 
ENDBRANCH  19  22
ENDBRANCH   1  19
TORSDOF 7
ENDMDL
MODEL 3
REMARK VINA RESULT:      -7.7      1.968      3.386
REMARK  Name = 323613
REMARK  7 active torsions:
REMARK  status: ('A' for Active; 'I' for Inactive)
REMARK    1  A    between atoms: C_3  and  O_5
REMARK    2  A    between atoms: O_5  and  C_8
REMARK    3  A    between atoms: C_14  and  C_15
REMARK    4  A    between atoms: CA_16  and  N_17
REMARK    5  A    between atoms: CA_16  and  C_18
REMARK    6  A    between atoms: C_19  and  C_23
REMARK    7  A    between atoms: C_23  and  O_24
REMARK                            x       y       z     vdW  Elec       q    Type
REMARK                         _______ _______ _______ _____ _____    ______ ____
ROOT
ATOM      1  C   UNL     1      19.418  40.533  43.775  0.00  0.00    +0.000 A 
ATOM      2  C   UNL     1      20.181  39.451  43.340  0.00  0.00    +0.000 A 
ATOM      3  C   UNL     1      20.058  41.704  44.190  0.00  0.00    +0.000 A 
ATOM      4  C   UNL     1      21.562  39.451  43.567  0.00  0.00    +0.000 A 
ATOM      5  C   UNL     1      21.441  41.721  44.374  0.00  0.00    +0.000 A 
ATOM      6  C   UNL     1      22.189  40.563  44.141  0.00  0.00    +0.000 A 
ENDROOT
BRANCH   6   7
ATOM      7  C   UNL     1      23.549  40.466  44.683  0.00  0.00    +0.000 C 
ATOM      8  CA  UNL     1      24.031  40.915  45.851  0.00  0.00    +0.000 C 
BRANCH   8   9
ATOM      9  N   UNL     1      23.343  41.701  46.758  0.00  0.00    +0.000 N 
ATOM     10  C   UNL     1      23.031  41.312  48.047  0.00  0.00    +0.000 C 
ATOM     11  O   UNL     1      23.168  40.178  48.496  0.00  0.00    +0.000 OA
ATOM     12  H   UNL     1      23.057  42.596  46.465  0.00  0.00    +0.000 HD
BRANCH  10  13
ATOM     13  C   UNL     1      22.342  42.420  48.841  0.00  0.00    +0.000 C 
BRANCH  13  14
ATOM     14  O   UNL     1      23.150  42.879  49.917  0.00  0.00    +0.000 OA
ATOM     15  H   UNL     1      24.071  42.948  49.623  0.00  0.00    +0.000 HD
ENDBRANCH  13  14
ENDBRANCH  10  13
ENDBRANCH   8   9
BRANCH   8  16
ATOM     16  C   UNL     1      25.408  40.458  46.225  0.00  0.00    +0.000 C 
ATOM     17  O   UNL     1      26.217  41.099  46.862  0.00  0.00    +0.000 OA
ATOM     18  OXT UNL     1      25.655  39.215  45.744  0.00  0.00    +0.000 OA
ENDBRANCH   8  16
ENDBRANCH   6   7
BRANCH   1  19
ATOM     19  O   UNL     1      18.050  40.561  43.850  0.00  0.00    +0.000 OA
BRANCH  19  22
ATOM     20  I   UNL     1      17.026  42.902  46.403  0.00  0.00    +0.000 I 
ATOM     21  C   UNL     1      16.936  40.815  46.102  0.00  0.00    +0.000 A 
ATOM     22  C   UNL     1      17.355  40.118  44.955  0.00  0.00    +0.000 A 
ATOM     23  C   UNL     1      16.241  40.131  47.119  0.00  0.00    +0.000 A 
ATOM     24  C   UNL     1      16.922  38.789  44.797  0.00  0.00    +0.000 A 
ATOM     25  C   UNL     1      15.851  38.804  46.952  0.00  0.00    +0.000 A 
ATOM     26  C   UNL     1      16.160  38.142  45.772  0.00  0.00    +0.000 A 
ENDBRANCH  19  22
ENDBRANCH   1  19
TORSDOF 7
ENDMDL
MODEL 4
REMARK VINA RESULT:      -7.7      2.953      7.182
REMARK  Name = 323613
REMARK  7 active torsions:
REMARK  status: ('A' for Active; 'I' for Inactive)
REMARK    1  A    between atoms: C_3  and  O_5
REMARK    2  A    between atoms: O_5  and  C_8
REMARK    3  A    between atoms: C_14  and  C_15
REMARK    4  A    between atoms: CA_16  and  N_17
REMARK    5  A    between atoms: CA_16  and  C_18
REMARK    6  A    between atoms: C_19  and  C_23
REMARK    7  A    between atoms: C_23  and  O_24
REMARK                            x       y       z     vdW  Elec       q    Type
REMARK                         _______ _______ _______ _____ _____    ______ ____
ROOT
ATOM      1  C   UNL     1      21.895  41.316  47.310  0.00  0.00    +0.000 A 
ATOM      2  C   UNL     1      21.862  42.527  46.622  0.00  0.00    +0.000 A 
ATOM      3  C   UNL     1      21.248  40.201  46.772  0.00  0.00    +0.000 A 
ATOM      4  C   UNL     1      20.976  42.682  45.549  0.00  0.00    +0.000 A 
ATOM      5  C   UNL     1      20.399  40.343  45.673  0.00  0.00    +0.000 A 
ATOM      6  C   UNL     1      20.197  41.607  45.109  0.00  0.00    +0.000 A 
ENDROOT
BRANCH   6   7
ATOM      7  C   UNL     1      19.046  41.821  44.224  0.00  0.00    +0.000 C 
ATOM      8  CA  UNL     1      18.203  40.922  43.696  0.00  0.00    +0.000 C 
BRANCH   8   9
ATOM      9  N   UNL     1      18.333  39.548  43.783  0.00  0.00    +0.000 N 
ATOM     10  C   UNL     1      17.508  38.733  44.537  0.00  0.00    +0.000 C 
ATOM     11  O   UNL     1      16.676  39.128  45.348  0.00  0.00    +0.000 OA
ATOM     12  H   UNL     1      19.060  39.122  43.275  0.00  0.00    +0.000 HD
BRANCH  10  13
ATOM     13  C   UNL     1      17.840  37.252  44.372  0.00  0.00    +0.000 C 
BRANCH  13  14
ATOM     14  O   UNL     1      17.490  36.500  45.526  0.00  0.00    +0.000 OA
ATOM     15  H   UNL     1      16.927  37.038  46.105  0.00  0.00    +0.000 HD
ENDBRANCH  13  14
ENDBRANCH  10  13
ENDBRANCH   8   9
BRANCH   8  16
ATOM     16  C   UNL     1      16.983  41.468  43.018  0.00  0.00    +0.000 C 
ATOM     17  O   UNL     1      16.407  40.957  42.082  0.00  0.00    +0.000 OA
ATOM     18  OXT UNL     1      16.597  42.638  43.583  0.00  0.00    +0.000 OA
ENDBRANCH   8  16
ENDBRANCH   6   7
BRANCH   1  19
ATOM     19  O   UNL     1      22.513  41.104  48.515  0.00  0.00    +0.000 OA
BRANCH  19  22
ATOM     20  I   UNL     1      25.315  40.490  46.318  0.00  0.00    +0.000 I 
ATOM     21  C   UNL     1      24.992  41.445  48.173  0.00  0.00    +0.000 A 
ATOM     22  C   UNL     1      23.755  41.621  48.817  0.00  0.00    +0.000 A 
ATOM     23  C   UNL     1      26.142  42.078  48.685  0.00  0.00    +0.000 A 
ATOM     24  C   UNL     1      23.685  42.555  49.866  0.00  0.00    +0.000 A 
ATOM     25  C   UNL     1      26.052  42.975  49.748  0.00  0.00    +0.000 A 
ATOM     26  C   UNL     1      24.815  43.243  50.316  0.00  0.00    +0.000 A 
ENDBRANCH  19  22
ENDBRANCH   1  19
TORSDOF 7
ENDMDL
MODEL 5
REMARK VINA RESULT:      -7.4      1.736      2.342
REMARK  Name = 323613
REMARK  7 active torsions:
REMARK  status: ('A' for Active; 'I' for Inactive)
REMARK    1  A    between atoms: C_3  and  O_5
REMARK    2  A    between atoms: O_5  and  C_8
REMARK    3  A    between atoms: C_14  and  C_15
REMARK    4  A    between atoms: CA_16  and  N_17
REMARK    5  A    between atoms: CA_16  and  C_18
REMARK    6  A    between atoms: C_19  and  C_23
REMARK    7  A    between atoms: C_23  and  O_24
REMARK                            x       y       z     vdW  Elec       q    Type
REMARK                         _______ _______ _______ _____ _____    ______ ____
ROOT
ATOM      1  C   UNL     1      19.262  42.361  46.473  0.00  0.00    +0.000 A 
ATOM      2  C   UNL     1      19.374  42.556  47.848  0.00  0.00    +0.000 A 
ATOM      3  C   UNL     1      20.334  41.809  45.766  0.00  0.00    +0.000 A 
ATOM      4  C   UNL     1      20.630  42.443  48.457  0.00  0.00    +0.000 A 
ATOM      5  C   UNL     1      21.576  41.654  46.383  0.00  0.00    +0.000 A 
ATOM      6  C   UNL     1      21.748  42.051  47.713  0.00  0.00    +0.000 A 
ENDROOT
BRANCH   6   7
ATOM      7  C   UNL     1      23.107  42.240  48.235  0.00  0.00    +0.000 C 
ATOM      8  CA  UNL     1      24.164  41.419  48.165  0.00  0.00    +0.000 C 
BRANCH   8   9
ATOM      9  N   UNL     1      24.149  40.125  47.677  0.00  0.00    +0.000 N 
ATOM     10  C   UNL     1      24.506  39.772  46.388  0.00  0.00    +0.000 C 
ATOM     11  O   UNL     1      24.716  40.562  45.473  0.00  0.00    +0.000 OA
ATOM     12  H   UNL     1      23.865  39.407  48.288  0.00  0.00    +0.000 HD
BRANCH  10  13
ATOM     13  C   UNL     1      24.470  38.263  46.164  0.00  0.00    +0.000 C 
BRANCH  13  14
ATOM     14  O   UNL     1      23.345  37.869  45.390  0.00  0.00    +0.000 OA
ATOM     15  H   UNL     1      23.597  37.819  44.455  0.00  0.00    +0.000 HD
ENDBRANCH  13  14
ENDBRANCH  10  13
ENDBRANCH   8   9
BRANCH   8  16
ATOM     16  C   UNL     1      25.483  41.992  48.588  0.00  0.00    +0.000 C 
ATOM     17  O   UNL     1      26.559  41.726  48.096  0.00  0.00    +0.000 OA
ATOM     18  OXT UNL     1      25.327  42.857  49.619  0.00  0.00    +0.000 OA
ENDBRANCH   8  16
ENDBRANCH   6   7
BRANCH   1  19
ATOM     19  O   UNL     1      18.168  42.681  45.712  0.00  0.00    +0.000 OA
BRANCH  19  22
ATOM     20  I   UNL     1      16.573  39.603  46.729  0.00  0.00    +0.000 I 
ATOM     21  C   UNL     1      17.067  40.554  44.910  0.00  0.00    +0.000 A 
ATOM     22  C   UNL     1      17.644  41.827  44.764  0.00  0.00    +0.000 A 
ATOM     23  C   UNL     1      16.609  39.861  43.772  0.00  0.00    +0.000 A 
ATOM     24  C   UNL     1      17.599  42.430  43.494  0.00  0.00    +0.000 A 
ATOM     25  C   UNL     1      16.605  40.468  42.518  0.00  0.00    +0.000 A 
ATOM     26  C   UNL     1      17.067  41.770  42.385  0.00  0.00    +0.000 A 
ENDBRANCH  19  22
ENDBRANCH   1  19
TORSDOF 7
ENDMDL
MODEL 6
REMARK VINA RESULT:      -7.1      1.501      2.969
REMARK  Name = 323613
REMARK  7 active torsions:
REMARK  status: ('A' for Active; 'I' for Inactive)
REMARK    1  A    between atoms: C_3  and  O_5
REMARK    2  A    between atoms: O_5  and  C_8
REMARK    3  A    between atoms: C_14  and  C_15
REMARK    4  A    between atoms: CA_16  and  N_17
REMARK    5  A    between atoms: CA_16  and  C_18
REMARK    6  A    between atoms: C_19  and  C_23
REMARK    7  A    between atoms: C_23  and  O_24
REMARK                            x       y       z     vdW  Elec       q    Type
REMARK                         _______ _______ _______ _____ _____    ______ ____
ROOT
ATOM      1  C   UNL     1      19.283  41.953  46.279  0.00  0.00    +0.000 A 
ATOM      2  C   UNL     1      20.095  42.868  45.611  0.00  0.00    +0.000 A 
ATOM      3  C   UNL     1      19.848  41.094  47.225  0.00  0.00    +0.000 A 
ATOM      4  C   UNL     1      21.487  42.741  45.699  0.00  0.00    +0.000 A 
ATOM      5  C   UNL     1      21.235  40.997  47.347  0.00  0.00    +0.000 A 
ATOM      6  C   UNL     1      22.062  41.765  46.521  0.00  0.00    +0.000 A 
ENDROOT
BRANCH   6   7
ATOM      7  C   UNL     1      23.476  41.400  46.382  0.00  0.00    +0.000 C 
ATOM      8  CA  UNL     1      24.514  41.711  47.172  0.00  0.00    +0.000 C 
BRANCH   8   9
ATOM      9  N   UNL     1      24.476  42.579  48.248  0.00  0.00    +0.000 N 
ATOM     10  C   UNL     1      24.279  42.187  49.559  0.00  0.00    +0.000 C 
ATOM     11  O   UNL     1      23.949  41.061  49.918  0.00  0.00    +0.000 OA
ATOM     12  H   UNL     1      24.597  43.539  48.068  0.00  0.00    +0.000 HD
BRANCH  10  13
ATOM     13  C   UNL     1      24.371  43.356  50.538  0.00  0.00    +0.000 C 
BRANCH  13  14
ATOM     14  O   UNL     1      24.321  42.918  51.889  0.00  0.00    +0.000 OA
ATOM     15  H   UNL     1      23.979  43.632  52.449  0.00  0.00    +0.000 HD
ENDBRANCH  13  14
ENDBRANCH  10  13
ENDBRANCH   8   9
BRANCH   8  16
ATOM     16  C   UNL     1      25.801  40.994  46.896  0.00  0.00    +0.000 C 
ATOM     17  O   UNL     1      26.836  41.140  47.510  0.00  0.00    +0.000 OA
ATOM     18  OXT UNL     1      25.670  40.149  45.844  0.00  0.00    +0.000 OA
ENDBRANCH   8  16
ENDBRANCH   6   7
BRANCH   1  19
ATOM     19  O   UNL     1      17.935  41.799  46.085  0.00  0.00    +0.000 OA
BRANCH  19  22
ATOM     20  I   UNL     1      19.246  39.459  43.665  0.00  0.00    +0.000 I 
ATOM     21  C   UNL     1      17.614  39.541  45.002  0.00  0.00    +0.000 A 
ATOM     22  C   UNL     1      17.342  40.564  45.925  0.00  0.00    +0.000 A 
ATOM     23  C   UNL     1      16.851  38.356  45.028  0.00  0.00    +0.000 A 
ATOM     24  C   UNL     1      16.414  40.300  46.949  0.00  0.00    +0.000 A 
ATOM     25  C   UNL     1      15.913  38.131  46.033  0.00  0.00    +0.000 A 
ATOM     26  C   UNL     1      15.720  39.090  47.018  0.00  0.00    +0.000 A 
ENDBRANCH  19  22
ENDBRANCH   1  19
TORSDOF 7
ENDMDL
MODEL 7
REMARK VINA RESULT:      -7.0      2.228      3.777
REMARK  Name = 323613
REMARK  7 active torsions:
REMARK  status: ('A' for Active; 'I' for Inactive)
REMARK    1  A    between atoms: C_3  and  O_5
REMARK    2  A    between atoms: O_5  and  C_8
REMARK    3  A    between atoms: C_14  and  C_15
REMARK    4  A    between atoms: CA_16  and  N_17
REMARK    5  A    between atoms: CA_16  and  C_18
REMARK    6  A    between atoms: C_19  and  C_23
REMARK    7  A    between atoms: C_23  and  O_24
REMARK                            x       y       z     vdW  Elec       q    Type
REMARK                         _______ _______ _______ _____ _____    ______ ____
ROOT
ATOM      1  C   UNL     1      19.132  41.519  47.066  0.00  0.00    +0.000 A 
ATOM      2  C   UNL     1      19.758  42.527  47.796  0.00  0.00    +0.000 A 
ATOM      3  C   UNL     1      19.855  40.380  46.705  0.00  0.00    +0.000 A 
ATOM      4  C   UNL     1      21.152  42.509  47.934  0.00  0.00    +0.000 A 
ATOM      5  C   UNL     1      21.239  40.340  46.881  0.00  0.00    +0.000 A 
ATOM      6  C   UNL     1      21.903  41.446  47.423  0.00  0.00    +0.000 A 
ENDROOT
BRANCH   6   7
ATOM      7  C   UNL     1      23.358  41.557  47.263  0.00  0.00    +0.000 C 
ATOM      8  CA  UNL     1      24.320  41.508  48.196  0.00  0.00    +0.000 C 
BRANCH   8   9
ATOM      9  N   UNL     1      24.116  41.468  49.563  0.00  0.00    +0.000 N 
ATOM     10  C   UNL     1      24.153  42.576  50.389  0.00  0.00    +0.000 C 
ATOM     11  O   UNL     1      24.533  43.694  50.055  0.00  0.00    +0.000 OA
ATOM     12  H   UNL     1      23.933  40.593  49.974  0.00  0.00    +0.000 HD
BRANCH  10  13
ATOM     13  C   UNL     1      23.808  42.236  51.837  0.00  0.00    +0.000 C 
BRANCH  13  14
ATOM     14  O   UNL     1      24.518  43.056  52.756  0.00  0.00    +0.000 OA
ATOM     15  H   UNL     1      24.312  43.988  52.586  0.00  0.00    +0.000 HD
ENDBRANCH  13  14
ENDBRANCH  10  13
ENDBRANCH   8   9
BRANCH   8  16
ATOM     16  C   UNL     1      25.730  41.418  47.695  0.00  0.00    +0.000 C 
ATOM     17  O   UNL     1      26.726  41.659  48.343  0.00  0.00    +0.000 OA
ATOM     18  OXT UNL     1      25.760  41.035  46.395  0.00  0.00    +0.000 OA
ENDBRANCH   8  16
ENDBRANCH   6   7
BRANCH   1  19
ATOM     19  O   UNL     1      17.830  41.540  46.639  0.00  0.00    +0.000 OA
BRANCH  19  22
ATOM     20  I   UNL     1      16.485  38.254  45.973  0.00  0.00    +0.000 I 
ATOM     21  C   UNL     1      17.005  39.963  44.848  0.00  0.00    +0.000 A 
ATOM     22  C   UNL     1      17.460  41.191  45.357  0.00  0.00    +0.000 A 
ATOM     23  C   UNL     1      16.697  39.846  43.478  0.00  0.00    +0.000 A 
ATOM     24  C   UNL     1      17.441  42.307  44.501  0.00  0.00    +0.000 A 
ATOM     25  C   UNL     1      16.717  40.961  42.642  0.00  0.00    +0.000 A 
ATOM     26  C   UNL     1      17.055  42.202  43.164  0.00  0.00    +0.000 A 
ENDBRANCH  19  22
ENDBRANCH   1  19
TORSDOF 7
ENDMDL
MODEL 8
REMARK VINA RESULT:      -6.8      3.105      7.034
REMARK  Name = 323613
REMARK  7 active torsions:
REMARK  status: ('A' for Active; 'I' for Inactive)
REMARK    1  A    between atoms: C_3  and  O_5
REMARK    2  A    between atoms: O_5  and  C_8
REMARK    3  A    between atoms: C_14  and  C_15
REMARK    4  A    between atoms: CA_16  and  N_17
REMARK    5  A    between atoms: CA_16  and  C_18
REMARK    6  A    between atoms: C_19  and  C_23
REMARK    7  A    between atoms: C_23  and  O_24
REMARK                            x       y       z     vdW  Elec       q    Type
REMARK                         _______ _______ _______ _____ _____    ______ ____
ROOT
ATOM      1  C   UNL     1      21.006  41.976  47.219  0.00  0.00    +0.000 A 
ATOM      2  C   UNL     1      19.652  41.690  47.376  0.00  0.00    +0.000 A 
ATOM      3  C   UNL     1      21.444  42.615  46.056  0.00  0.00    +0.000 A 
ATOM      4  C   UNL     1      18.794  41.805  46.276  0.00  0.00    +0.000 A 
ATOM      5  C   UNL     1      20.579  42.772  44.972  0.00  0.00    +0.000 A 
ATOM      6  C   UNL     1      19.268  42.289  45.052  0.00  0.00    +0.000 A 
ENDROOT
BRANCH   6   7
ATOM      7  C   UNL     1      18.493  42.113  43.819  0.00  0.00    +0.000 C 
ATOM      8  CA  UNL     1      17.979  40.992  43.292  0.00  0.00    +0.000 C 
BRANCH   8   9
ATOM      9  N   UNL     1      18.197  39.709  43.760  0.00  0.00    +0.000 N 
ATOM     10  C   UNL     1      17.369  39.055  44.654  0.00  0.00    +0.000 C 
ATOM     11  O   UNL     1      16.444  39.574  45.271  0.00  0.00    +0.000 OA
ATOM     12  H   UNL     1      18.993  39.231  43.435  0.00  0.00    +0.000 HD
BRANCH  10  13
ATOM     13  C   UNL     1      17.817  37.620  44.922  0.00  0.00    +0.000 C 
BRANCH  13  14
ATOM     14  O   UNL     1      18.934  37.257  44.121  0.00  0.00    +0.000 OA
ATOM     15  H   UNL     1      18.709  36.479  43.586  0.00  0.00    +0.000 HD
ENDBRANCH  13  14
ENDBRANCH  10  13
ENDBRANCH   8   9
BRANCH   8  16
ATOM     16  C   UNL     1      17.034  41.167  42.142  0.00  0.00    +0.000 C 
ATOM     17  O   UNL     1      17.230  41.860  41.166  0.00  0.00    +0.000 OA
ATOM     18  OXT UNL     1      15.901  40.449  42.331  0.00  0.00    +0.000 OA
ENDBRANCH   8  16
ENDBRANCH   6   7
BRANCH   1  19
ATOM     19  O   UNL     1      21.993  41.671  48.120  0.00  0.00    +0.000 OA
BRANCH  19  22
ATOM     20  I   UNL     1      24.729  42.930  50.115  0.00  0.00    +0.000 I 
ATOM     21  C   UNL     1      24.503  41.875  48.300  0.00  0.00    +0.000 A 
ATOM     22  C   UNL     1      23.296  41.422  47.743  0.00  0.00    +0.000 A 
ATOM     23  C   UNL     1      25.728  41.488  47.721  0.00  0.00    +0.000 A 
ATOM     24  C   UNL     1      23.362  40.464  46.715  0.00  0.00    +0.000 A 
ATOM     25  C   UNL     1      25.767  40.561  46.681  0.00  0.00    +0.000 A 
ATOM     26  C   UNL     1      24.582  40.020  46.201  0.00  0.00    +0.000 A 
ENDBRANCH  19  22
ENDBRANCH   1  19
TORSDOF 7
ENDMDL
MODEL 9
REMARK VINA RESULT:      -6.4      3.050      7.447
REMARK  Name = 323613
REMARK  7 active torsions:
REMARK  status: ('A' for Active; 'I' for Inactive)
REMARK    1  A    between atoms: C_3  and  O_5
REMARK    2  A    between atoms: O_5  and  C_8
REMARK    3  A    between atoms: C_14  and  C_15
REMARK    4  A    between atoms: CA_16  and  N_17
REMARK    5  A    between atoms: CA_16  and  C_18
REMARK    6  A    between atoms: C_19  and  C_23
REMARK    7  A    between atoms: C_23  and  O_24
REMARK                            x       y       z     vdW  Elec       q    Type
REMARK                         _______ _______ _______ _____ _____    ______ ____
ROOT
ATOM      1  C   UNL     1      21.962  41.255  47.153  0.00  0.00    +0.000 A 
ATOM      2  C   UNL     1      21.692  42.424  46.445  0.00  0.00    +0.000 A 
ATOM      3  C   UNL     1      21.702  40.016  46.562  0.00  0.00    +0.000 A 
ATOM      4  C   UNL     1      20.931  42.354  45.271  0.00  0.00    +0.000 A 
ATOM      5  C   UNL     1      20.983  39.944  45.368  0.00  0.00    +0.000 A 
ATOM      6  C   UNL     1      20.522  41.117  44.762  0.00  0.00    +0.000 A 
ENDROOT
BRANCH   6   7
ATOM      7  C   UNL     1      19.470  41.032  43.742  0.00  0.00    +0.000 C 
ATOM      8  CA  UNL     1      18.212  41.495  43.780  0.00  0.00    +0.000 C 
BRANCH   8   9
ATOM      9  N   UNL     1      17.593  42.057  44.881  0.00  0.00    +0.000 N 
ATOM     10  C   UNL     1      16.998  41.331  45.896  0.00  0.00    +0.000 C 
ATOM     11  O   UNL     1      16.792  40.122  45.872  0.00  0.00    +0.000 OA
ATOM     12  H   UNL     1      17.576  43.039  44.947  0.00  0.00    +0.000 HD
BRANCH  10  13
ATOM     13  C   UNL     1      16.472  42.221  47.020  0.00  0.00    +0.000 C 
BRANCH  13  14
ATOM     14  O   UNL     1      16.659  43.600  46.733  0.00  0.00    +0.000 OA
ATOM     15  H   UNL     1      17.052  44.041  47.503  0.00  0.00    +0.000 HD
ENDBRANCH  13  14
ENDBRANCH  10  13
ENDBRANCH   8   9
BRANCH   8  16
ATOM     16  C   UNL     1      17.449  41.459  42.490  0.00  0.00    +0.000 C 
ATOM     17  O   UNL     1      17.675  42.145  41.516  0.00  0.00    +0.000 OA
ATOM     18  OXT UNL     1      16.443  40.553  42.547  0.00  0.00    +0.000 OA
ENDBRANCH   8  16
ENDBRANCH   6   7
BRANCH   1  19
ATOM     19  O   UNL     1      22.466  41.197  48.427  0.00  0.00    +0.000 OA
BRANCH  19  22
ATOM     20  I   UNL     1      25.296  40.584  46.267  0.00  0.00    +0.000 I 
ATOM     21  C   UNL     1      24.955  41.510  48.133  0.00  0.00    +0.000 A 
ATOM     22  C   UNL     1      23.710  41.692  48.759  0.00  0.00    +0.000 A 
ATOM     23  C   UNL     1      26.105  42.117  48.676  0.00  0.00    +0.000 A 
ATOM     24  C   UNL     1      23.635  42.608  49.824  0.00  0.00    +0.000 A 
ATOM     25  C   UNL     1      26.009  42.996  49.753  0.00  0.00    +0.000 A 
ATOM     26  C   UNL     1      24.766  43.270  50.305  0.00  0.00    +0.000 A 
ENDBRANCH  19  22
ENDBRANCH   1  19
TORSDOF 7
ENDMDL
