MODEL 1
REMARK VINA RESULT:      -7.7      0.000      0.000
REMARK  Name = 321671
REMARK  6 active torsions:
REMARK  status: ('A' for Active; 'I' for Inactive)
REMARK    1  A    between atoms: C_3  and  O_5
REMARK    2  A    between atoms: O_5  and  C_8
REMARK    3  A    between atoms: C_14  and  C_15
REMARK    4  A    between atoms: CA_16  and  N_17
REMARK    5  A    between atoms: CA_16  and  C_18
REMARK    6  A    between atoms: C_19  and  C_23
REMARK                            x       y       z     vdW  Elec       q    Type
REMARK                         _______ _______ _______ _____ _____    ______ ____
ROOT
ATOM      1  C   UNL     1      19.631  41.148  43.219  0.00  0.00    +0.000 C 
ATOM      2  CA  UNL     1      18.307  41.291  43.407  0.00  0.00    +0.000 C 
ENDROOT
BRANCH   1   8
ATOM      3  C   UNL     1      22.260  40.852  46.530  0.00  0.00    +0.000 A 
ATOM      4  C   UNL     1      21.711  42.093  46.212  0.00  0.00    +0.000 A 
ATOM      5  C   UNL     1      22.185  39.810  45.603  0.00  0.00    +0.000 A 
ATOM      6  C   UNL     1      20.889  42.215  45.083  0.00  0.00    +0.000 A 
ATOM      7  C   UNL     1      21.403  39.944  44.453  0.00  0.00    +0.000 A 
ATOM      8  C   UNL     1      20.690  41.125  44.230  0.00  0.00    +0.000 A 
BRANCH   3   9
ATOM      9  O   UNL     1      22.894  40.540  47.706  0.00  0.00    +0.000 OA
BRANCH   9  12
ATOM     10 BR   UNL     1      25.864  40.683  46.012  0.00  0.00    +0.000 Br
ATOM     11  C   UNL     1      25.266  41.384  47.678  0.00  0.00    +0.000 A 
ATOM     12  C   UNL     1      23.965  41.263  48.190  0.00  0.00    +0.000 A 
ATOM     13  C   UNL     1      26.210  42.180  48.351  0.00  0.00    +0.000 A 
ATOM     14  C   UNL     1      23.607  42.065  49.287  0.00  0.00    +0.000 A 
ATOM     15  C   UNL     1      25.844  42.942  49.458  0.00  0.00    +0.000 A 
ATOM     16  C   UNL     1      24.530  42.909  49.908  0.00  0.00    +0.000 A 
ENDBRANCH   9  12
ENDBRANCH   3   9
ENDBRANCH   1   8
BRANCH   2  17
ATOM     17  N   UNL     1      17.736  41.381  44.665  0.00  0.00    +0.000 N 
ATOM     18  C   UNL     1      17.137  42.573  45.059  0.00  0.00    +0.000 C 
ATOM     19  O   UNL     1      17.256  43.599  44.397  0.00  0.00    +0.000 OA
ATOM     20  H   UNL     1      17.754  40.608  45.276  0.00  0.00    +0.000 HD
BRANCH  18  21
ATOM     21  C   UNL     1      16.476  42.521  46.441  0.00  0.00    +0.000 C 
ATOM     22  C   UNL     1      16.775  43.782  47.260  0.00  0.00    +0.000 C 
ATOM     23  C   UNL     1      16.907  41.285  47.245  0.00  0.00    +0.000 C 
ATOM     24  C   UNL     1      18.262  43.879  47.590  0.00  0.00    +0.000 C 
ATOM     25  C   UNL     1      18.379  41.329  47.657  0.00  0.00    +0.000 C 
ATOM     26  C   UNL     1      18.775  42.645  48.324  0.00  0.00    +0.000 C 
ENDBRANCH  18  21
ENDBRANCH   2  17
BRANCH   2  27
ATOM     27  C   UNL     1      17.450  41.359  42.178  0.00  0.00    +0.000 C 
ATOM     28  O   UNL     1      17.677  42.064  41.216  0.00  0.00    +0.000 OA
ATOM     29  OXT UNL     1      16.357  40.568  42.278  0.00  0.00    +0.000 OA
ENDBRANCH   2  27
TORSDOF 6
ENDMDL
MODEL 2
REMARK VINA RESULT:      -7.7      3.050      7.942
REMARK  Name = 321671
REMARK  6 active torsions:
REMARK  status: ('A' for Active; 'I' for Inactive)
REMARK    1  A    between atoms: C_3  and  O_5
REMARK    2  A    between atoms: O_5  and  C_8
REMARK    3  A    between atoms: C_14  and  C_15
REMARK    4  A    between atoms: CA_16  and  N_17
REMARK    5  A    between atoms: CA_16  and  C_18
REMARK    6  A    between atoms: C_19  and  C_23
REMARK                            x       y       z     vdW  Elec       q    Type
REMARK                         _______ _______ _______ _____ _____    ______ ____
ROOT
ATOM      1  C   UNL     1      22.681  42.476  48.694  0.00  0.00    +0.000 C 
ATOM      2  CA  UNL     1      24.008  42.269  48.628  0.00  0.00    +0.000 C 
ENDROOT
BRANCH   1   8
ATOM      3  C   UNL     1      19.325  41.556  46.274  0.00  0.00    +0.000 A 
ATOM      4  C   UNL     1      20.124  40.516  46.745  0.00  0.00    +0.000 A 
ATOM      5  C   UNL     1      19.795  42.870  46.345  0.00  0.00    +0.000 A 
ATOM      6  C   UNL     1      21.271  40.812  47.495  0.00  0.00    +0.000 A 
ATOM      7  C   UNL     1      20.964  43.163  47.053  0.00  0.00    +0.000 A 
ATOM      8  C   UNL     1      21.663  42.139  47.696  0.00  0.00    +0.000 A 
BRANCH   3   9
ATOM      9  O   UNL     1      18.076  41.414  45.723  0.00  0.00    +0.000 OA
BRANCH   9  12
ATOM     10 BR   UNL     1      19.094  38.937  43.592  0.00  0.00    +0.000 Br
ATOM     11  C   UNL     1      17.647  39.105  44.818  0.00  0.00    +0.000 A 
ATOM     12  C   UNL     1      17.421  40.201  45.664  0.00  0.00    +0.000 A 
ATOM     13  C   UNL     1      16.841  37.958  44.931  0.00  0.00    +0.000 A 
ATOM     14  C   UNL     1      16.484  40.058  46.701  0.00  0.00    +0.000 A 
ATOM     15  C   UNL     1      15.892  37.848  45.946  0.00  0.00    +0.000 A 
ATOM     16  C   UNL     1      15.735  38.888  46.853  0.00  0.00    +0.000 A 
ENDBRANCH   9  12
ENDBRANCH   3   9
ENDBRANCH   1   8
BRANCH   2  17
ATOM     17  N   UNL     1      24.611  41.617  47.566  0.00  0.00    +0.000 N 
ATOM     18  C   UNL     1      24.536  40.230  47.485  0.00  0.00    +0.000 C 
ATOM     19  O   UNL     1      24.107  39.557  48.416  0.00  0.00    +0.000 OA
ATOM     20  H   UNL     1      25.091  42.130  46.875  0.00  0.00    +0.000 HD
BRANCH  18  21
ATOM     21  C   UNL     1      25.177  39.636  46.226  0.00  0.00    +0.000 C 
ATOM     22  C   UNL     1      25.016  40.564  45.016  0.00  0.00    +0.000 C 
ATOM     23  C   UNL     1      24.605  38.253  45.880  0.00  0.00    +0.000 C 
ATOM     24  C   UNL     1      23.548  40.702  44.626  0.00  0.00    +0.000 C 
ATOM     25  C   UNL     1      23.144  38.312  45.431  0.00  0.00    +0.000 C 
ATOM     26  C   UNL     1      22.894  39.354  44.342  0.00  0.00    +0.000 C 
ENDBRANCH  18  21
ENDBRANCH   2  17
BRANCH   2  27
ATOM     27  C   UNL     1      24.833  42.789  49.767  0.00  0.00    +0.000 C 
ATOM     28  O   UNL     1      24.381  43.217  50.809  0.00  0.00    +0.000 OA
ATOM     29  OXT UNL     1      26.157  42.768  49.484  0.00  0.00    +0.000 OA
ENDBRANCH   2  27
TORSDOF 6
ENDMDL
MODEL 3
REMARK VINA RESULT:      -7.5      3.339      7.889
REMARK  Name = 321671
REMARK  6 active torsions:
REMARK  status: ('A' for Active; 'I' for Inactive)
REMARK    1  A    between atoms: C_3  and  O_5
REMARK    2  A    between atoms: O_5  and  C_8
REMARK    3  A    between atoms: C_14  and  C_15
REMARK    4  A    between atoms: CA_16  and  N_17
REMARK    5  A    between atoms: CA_16  and  C_18
REMARK    6  A    between atoms: C_19  and  C_23
REMARK                            x       y       z     vdW  Elec       q    Type
REMARK                         _______ _______ _______ _____ _____    ______ ____
ROOT
ATOM      1  C   UNL     1      22.867  42.532  48.417  0.00  0.00    +0.000 C 
ATOM      2  CA  UNL     1      24.172  42.226  48.301  0.00  0.00    +0.000 C 
ENDROOT
BRANCH   1   8
ATOM      3  C   UNL     1      20.096  41.109  45.542  0.00  0.00    +0.000 A 
ATOM      4  C   UNL     1      20.783  42.296  45.290  0.00  0.00    +0.000 A 
ATOM      5  C   UNL     1      20.099  40.575  46.833  0.00  0.00    +0.000 A 
ATOM      6  C   UNL     1      21.656  42.808  46.260  0.00  0.00    +0.000 A 
ATOM      7  C   UNL     1      20.934  41.112  47.817  0.00  0.00    +0.000 A 
ATOM      8  C   UNL     1      21.773  42.185  47.507  0.00  0.00    +0.000 A 
BRANCH   3   9
ATOM      9  O   UNL     1      19.389  40.386  44.615  0.00  0.00    +0.000 OA
BRANCH   9  12
ATOM     10 BR   UNL     1      16.565  41.419  46.248  0.00  0.00    +0.000 Br
ATOM     11  C   UNL     1      17.211  39.719  45.687  0.00  0.00    +0.000 A 
ATOM     12  C   UNL     1      18.394  39.497  44.965  0.00  0.00    +0.000 A 
ATOM     13  C   UNL     1      16.334  38.648  45.936  0.00  0.00    +0.000 A 
ATOM     14  C   UNL     1      18.590  38.231  44.386  0.00  0.00    +0.000 A 
ATOM     15  C   UNL     1      16.564  37.390  45.381  0.00  0.00    +0.000 A 
ATOM     16  C   UNL     1      17.679  37.190  44.577  0.00  0.00    +0.000 A 
ENDBRANCH   9  12
ENDBRANCH   3   9
ENDBRANCH   1   8
BRANCH   2  17
ATOM     17  N   UNL     1      24.668  41.447  47.270  0.00  0.00    +0.000 N 
ATOM     18  C   UNL     1      24.462  40.071  47.294  0.00  0.00    +0.000 C 
ATOM     19  O   UNL     1      24.010  39.509  48.286  0.00  0.00    +0.000 OA
ATOM     20  H   UNL     1      25.165  41.862  46.528  0.00  0.00    +0.000 HD
BRANCH  18  21
ATOM     21  C   UNL     1      24.993  39.331  46.061  0.00  0.00    +0.000 C 
ATOM     22  C   UNL     1      25.032  40.241  44.828  0.00  0.00    +0.000 C 
ATOM     23  C   UNL     1      24.169  38.077  45.736  0.00  0.00    +0.000 C 
ATOM     24  C   UNL     1      23.624  40.651  44.406  0.00  0.00    +0.000 C 
ATOM     25  C   UNL     1      22.754  38.405  45.258  0.00  0.00    +0.000 C 
ATOM     26  C   UNL     1      22.726  39.447  44.141  0.00  0.00    +0.000 C 
ENDBRANCH  18  21
ENDBRANCH   2  17
BRANCH   2  27
ATOM     27  C   UNL     1      25.094  42.780  49.346  0.00  0.00    +0.000 C 
ATOM     28  O   UNL     1      24.732  43.367  50.345  0.00  0.00    +0.000 OA
ATOM     29  OXT UNL     1      26.395  42.587  49.027  0.00  0.00    +0.000 OA
ENDBRANCH   2  27
TORSDOF 6
ENDMDL
MODEL 4
REMARK VINA RESULT:      -7.1      1.102      1.489
REMARK  Name = 321671
REMARK  6 active torsions:
REMARK  status: ('A' for Active; 'I' for Inactive)
REMARK    1  A    between atoms: C_3  and  O_5
REMARK    2  A    between atoms: O_5  and  C_8
REMARK    3  A    between atoms: C_14  and  C_15
REMARK    4  A    between atoms: CA_16  and  N_17
REMARK    5  A    between atoms: CA_16  and  C_18
REMARK    6  A    between atoms: C_19  and  C_23
REMARK                            x       y       z     vdW  Elec       q    Type
REMARK                         _______ _______ _______ _____ _____    ______ ____
ROOT
ATOM      1  C   UNL     1      19.425  41.154  43.006  0.00  0.00    +0.000 C 
ATOM      2  CA  UNL     1      18.108  41.245  43.264  0.00  0.00    +0.000 C 
ENDROOT
BRANCH   1   8
ATOM      3  C   UNL     1      22.226  40.975  46.183  0.00  0.00    +0.000 A 
ATOM      4  C   UNL     1      21.653  42.203  45.855  0.00  0.00    +0.000 A 
ATOM      5  C   UNL     1      22.109  39.904  45.294  0.00  0.00    +0.000 A 
ATOM      6  C   UNL     1      20.772  42.285  44.768  0.00  0.00    +0.000 A 
ATOM      7  C   UNL     1      21.267  39.998  44.183  0.00  0.00    +0.000 A 
ATOM      8  C   UNL     1      20.536  41.168  43.961  0.00  0.00    +0.000 A 
BRANCH   3   9
ATOM      9  O   UNL     1      22.922  40.704  47.333  0.00  0.00    +0.000 OA
BRANCH   9  12
ATOM     10 BR   UNL     1      23.501  42.653  50.086  0.00  0.00    +0.000 Br
ATOM     11  C   UNL     1      24.578  42.098  48.618  0.00  0.00    +0.000 A 
ATOM     12  C   UNL     1      24.170  41.233  47.592  0.00  0.00    +0.000 A 
ATOM     13  C   UNL     1      25.918  42.521  48.683  0.00  0.00    +0.000 A 
ATOM     14  C   UNL     1      25.155  40.700  46.742  0.00  0.00    +0.000 A 
ATOM     15  C   UNL     1      26.874  42.006  47.809  0.00  0.00    +0.000 A 
ATOM     16  C   UNL     1      26.497  41.068  46.857  0.00  0.00    +0.000 A 
ENDBRANCH   9  12
ENDBRANCH   3   9
ENDBRANCH   1   8
BRANCH   2  17
ATOM     17  N   UNL     1      17.600  41.310  44.550  0.00  0.00    +0.000 N 
ATOM     18  C   UNL     1      17.059  42.505  45.011  0.00  0.00    +0.000 C 
ATOM     19  O   UNL     1      17.179  43.549  44.378  0.00  0.00    +0.000 OA
ATOM     20  H   UNL     1      17.624  40.517  45.134  0.00  0.00    +0.000 HD
BRANCH  18  21
ATOM     21  C   UNL     1      16.463  42.426  46.422  0.00  0.00    +0.000 C 
ATOM     22  C   UNL     1      16.777  43.684  47.241  0.00  0.00    +0.000 C 
ATOM     23  C   UNL     1      16.952  41.189  47.190  0.00  0.00    +0.000 C 
ATOM     24  C   UNL     1      18.275  43.805  47.503  0.00  0.00    +0.000 C 
ATOM     25  C   UNL     1      18.441  41.256  47.535  0.00  0.00    +0.000 C 
ATOM     26  C   UNL     1      18.843  42.572  48.198  0.00  0.00    +0.000 C 
ENDBRANCH  18  21
ENDBRANCH   2  17
BRANCH   2  27
ATOM     27  C   UNL     1      17.187  41.285  42.082  0.00  0.00    +0.000 C 
ATOM     28  O   UNL     1      17.388  41.925  41.070  0.00  0.00    +0.000 OA
ATOM     29  OXT UNL     1      16.069  40.551  42.286  0.00  0.00    +0.000 OA
ENDBRANCH   2  27
TORSDOF 6
ENDMDL
MODEL 5
REMARK VINA RESULT:      -7.0      1.913      2.751
REMARK  Name = 321671
REMARK  6 active torsions:
REMARK  status: ('A' for Active; 'I' for Inactive)
REMARK    1  A    between atoms: C_3  and  O_5
REMARK    2  A    between atoms: O_5  and  C_8
REMARK    3  A    between atoms: C_14  and  C_15
REMARK    4  A    between atoms: CA_16  and  N_17
REMARK    5  A    between atoms: CA_16  and  C_18
REMARK    6  A    between atoms: C_19  and  C_23
REMARK                            x       y       z     vdW  Elec       q    Type
REMARK                         _______ _______ _______ _____ _____    ______ ____
ROOT
ATOM      1  C   UNL     1      21.166  39.058  43.870  0.00  0.00    +0.000 C 
ATOM      2  CA  UNL     1      19.979  39.497  44.324  0.00  0.00    +0.000 C 
ENDROOT
BRANCH   1   8
ATOM      3  C   UNL     1      24.731  40.189  45.867  0.00  0.00    +0.000 A 
ATOM      4  C   UNL     1      24.257  40.985  44.826  0.00  0.00    +0.000 A 
ATOM      5  C   UNL     1      24.213  38.902  46.037  0.00  0.00    +0.000 A 
ATOM      6  C   UNL     1      23.114  40.589  44.118  0.00  0.00    +0.000 A 
ATOM      7  C   UNL     1      23.101  38.486  45.300  0.00  0.00    +0.000 A 
ATOM      8  C   UNL     1      22.501  39.362  44.392  0.00  0.00    +0.000 A 
BRANCH   3   9
ATOM      9  O   UNL     1      25.693  40.553  46.774  0.00  0.00    +0.000 OA
BRANCH   9  12
ATOM     10 BR   UNL     1      22.524  40.875  48.025  0.00  0.00    +0.000 Br
ATOM     11  C   UNL     1      24.198  41.670  48.464  0.00  0.00    +0.000 A 
ATOM     12  C   UNL     1      25.426  41.363  47.859  0.00  0.00    +0.000 A 
ATOM     13  C   UNL     1      24.162  42.537  49.570  0.00  0.00    +0.000 A 
ATOM     14  C   UNL     1      26.603  41.822  48.476  0.00  0.00    +0.000 A 
ATOM     15  C   UNL     1      25.338  43.010  50.147  0.00  0.00    +0.000 A 
ATOM     16  C   UNL     1      26.564  42.625  49.619  0.00  0.00    +0.000 A 
ENDBRANCH   9  12
ENDBRANCH   3   9
ENDBRANCH   1   8
BRANCH   2  17
ATOM     17  N   UNL     1      19.856  40.295  45.448  0.00  0.00    +0.000 N 
ATOM     18  C   UNL     1      19.786  41.677  45.299  0.00  0.00    +0.000 C 
ATOM     19  O   UNL     1      20.007  42.217  44.220  0.00  0.00    +0.000 OA
ATOM     20  H   UNL     1      19.821  39.890  46.345  0.00  0.00    +0.000 HD
BRANCH  18  21
ATOM     21  C   UNL     1      19.576  42.443  46.610  0.00  0.00    +0.000 C 
ATOM     22  C   UNL     1      18.804  41.606  47.638  0.00  0.00    +0.000 C 
ATOM     23  C   UNL     1      18.843  43.776  46.394  0.00  0.00    +0.000 C 
ATOM     24  C   UNL     1      17.380  41.335  47.162  0.00  0.00    +0.000 C 
ATOM     25  C   UNL     1      17.388  43.589  45.960  0.00  0.00    +0.000 C 
ATOM     26  C   UNL     1      16.617  42.619  46.854  0.00  0.00    +0.000 C 
ENDBRANCH  18  21
ENDBRANCH   2  17
BRANCH   2  27
ATOM     27  C   UNL     1      18.763  39.089  43.547  0.00  0.00    +0.000 C 
ATOM     28  O   UNL     1      18.127  39.826  42.822  0.00  0.00    +0.000 OA
ATOM     29  OXT UNL     1      18.424  37.800  43.778  0.00  0.00    +0.000 OA
ENDBRANCH   2  27
TORSDOF 6
ENDMDL
MODEL 6
REMARK VINA RESULT:      -7.0      1.705      2.655
REMARK  Name = 321671
REMARK  6 active torsions:
REMARK  status: ('A' for Active; 'I' for Inactive)
REMARK    1  A    between atoms: C_3  and  O_5
REMARK    2  A    between atoms: O_5  and  C_8
REMARK    3  A    between atoms: C_14  and  C_15
REMARK    4  A    between atoms: CA_16  and  N_17
REMARK    5  A    between atoms: CA_16  and  C_18
REMARK    6  A    between atoms: C_19  and  C_23
REMARK                            x       y       z     vdW  Elec       q    Type
REMARK                         _______ _______ _______ _____ _____    ______ ____
ROOT
ATOM      1  C   UNL     1      19.451  41.739  43.727  0.00  0.00    +0.000 C 
ATOM      2  CA  UNL     1      18.270  41.096  43.725  0.00  0.00    +0.000 C 
ENDROOT
BRANCH   1   8
ATOM      3  C   UNL     1      22.078  41.288  47.023  0.00  0.00    +0.000 A 
ATOM      4  C   UNL     1      21.273  42.423  46.951  0.00  0.00    +0.000 A 
ATOM      5  C   UNL     1      22.233  40.483  45.891  0.00  0.00    +0.000 A 
ATOM      6  C   UNL     1      20.445  42.613  45.835  0.00  0.00    +0.000 A 
ATOM      7  C   UNL     1      21.442  40.697  44.759  0.00  0.00    +0.000 A 
ATOM      8  C   UNL     1      20.489  41.719  44.760  0.00  0.00    +0.000 A 
BRANCH   3   9
ATOM      9  O   UNL     1      22.764  40.868  48.134  0.00  0.00    +0.000 OA
BRANCH   9  12
ATOM     10 BR   UNL     1      25.729  40.696  46.433  0.00  0.00    +0.000 Br
ATOM     11  C   UNL     1      25.201  41.494  48.080  0.00  0.00    +0.000 A 
ATOM     12  C   UNL     1      23.897  41.505  48.596  0.00  0.00    +0.000 A 
ATOM     13  C   UNL     1      26.216  42.221  48.728  0.00  0.00    +0.000 A 
ATOM     14  C   UNL     1      23.616  42.367  49.670  0.00  0.00    +0.000 A 
ATOM     15  C   UNL     1      25.923  43.044  49.814  0.00  0.00    +0.000 A 
ATOM     16  C   UNL     1      24.614  43.142  50.266  0.00  0.00    +0.000 A 
ENDBRANCH   9  12
ENDBRANCH   3   9
ENDBRANCH   1   8
BRANCH   2  17
ATOM     17  N   UNL     1      17.886  40.234  44.738  0.00  0.00    +0.000 N 
ATOM     18  C   UNL     1      18.202  38.883  44.642  0.00  0.00    +0.000 C 
ATOM     19  O   UNL     1      18.652  38.403  43.606  0.00  0.00    +0.000 OA
ATOM     20  H   UNL     1      17.392  40.575  45.519  0.00  0.00    +0.000 HD
BRANCH  18  21
ATOM     21  C   UNL     1      17.789  38.049  45.860  0.00  0.00    +0.000 C 
ATOM     22  C   UNL     1      16.343  37.552  45.742  0.00  0.00    +0.000 C 
ATOM     23  C   UNL     1      17.948  38.825  47.176  0.00  0.00    +0.000 C 
ATOM     24  C   UNL     1      15.360  38.718  45.770  0.00  0.00    +0.000 C 
ATOM     25  C   UNL     1      16.961  39.987  47.303  0.00  0.00    +0.000 C 
ATOM     26  C   UNL     1      15.517  39.578  47.019  0.00  0.00    +0.000 C 
ENDBRANCH  18  21
ENDBRANCH   2  17
BRANCH   2  27
ATOM     27  C   UNL     1      17.357  41.358  42.565  0.00  0.00    +0.000 C 
ATOM     28  O   UNL     1      16.325  40.756  42.347  0.00  0.00    +0.000 OA
ATOM     29  OXT UNL     1      17.839  42.326  41.751  0.00  0.00    +0.000 OA
ENDBRANCH   2  27
TORSDOF 6
ENDMDL
MODEL 7
REMARK VINA RESULT:      -7.0      3.267      7.957
REMARK  Name = 321671
REMARK  6 active torsions:
REMARK  status: ('A' for Active; 'I' for Inactive)
REMARK    1  A    between atoms: C_3  and  O_5
REMARK    2  A    between atoms: O_5  and  C_8
REMARK    3  A    between atoms: C_14  and  C_15
REMARK    4  A    between atoms: CA_16  and  N_17
REMARK    5  A    between atoms: CA_16  and  C_18
REMARK    6  A    between atoms: C_19  and  C_23
REMARK                            x       y       z     vdW  Elec       q    Type
REMARK                         _______ _______ _______ _____ _____    ______ ____
ROOT
ATOM      1  C   UNL     1      22.556  42.436  48.576  0.00  0.00    +0.000 C 
ATOM      2  CA  UNL     1      23.859  42.146  48.743  0.00  0.00    +0.000 C 
ENDROOT
BRANCH   1   8
ATOM      3  C   UNL     1      20.560  41.182  45.054  0.00  0.00    +0.000 A 
ATOM      4  C   UNL     1      21.133  42.451  45.090  0.00  0.00    +0.000 A 
ATOM      5  C   UNL     1      20.386  40.473  46.245  0.00  0.00    +0.000 A 
ATOM      6  C   UNL     1      21.743  42.900  46.270  0.00  0.00    +0.000 A 
ATOM      7  C   UNL     1      20.953  40.940  47.433  0.00  0.00    +0.000 A 
ATOM      8  C   UNL     1      21.700  42.121  47.430  0.00  0.00    +0.000 A 
BRANCH   3   9
ATOM      9  O   UNL     1      20.129  40.534  43.923  0.00  0.00    +0.000 OA
BRANCH   9  12
ATOM     10 BR   UNL     1      17.878  38.050  44.609  0.00  0.00    +0.000 Br
ATOM     11  C   UNL     1      17.790  39.662  43.600  0.00  0.00    +0.000 A 
ATOM     12  C   UNL     1      18.825  40.601  43.478  0.00  0.00    +0.000 A 
ATOM     13  C   UNL     1      16.524  39.942  43.055  0.00  0.00    +0.000 A 
ATOM     14  C   UNL     1      18.516  41.861  42.937  0.00  0.00    +0.000 A 
ATOM     15  C   UNL     1      16.247  41.186  42.491  0.00  0.00    +0.000 A 
ATOM     16  C   UNL     1      17.237  42.160  42.462  0.00  0.00    +0.000 A 
ENDBRANCH   9  12
ENDBRANCH   3   9
ENDBRANCH   1   8
BRANCH   2  17
ATOM     17  N   UNL     1      24.587  41.415  47.821  0.00  0.00    +0.000 N 
ATOM     18  C   UNL     1      24.373  40.044  47.714  0.00  0.00    +0.000 C 
ATOM     19  O   UNL     1      23.691  39.437  48.533  0.00  0.00    +0.000 OA
ATOM     20  H   UNL     1      25.251  41.860  47.246  0.00  0.00    +0.000 HD
BRANCH  18  21
ATOM     21  C   UNL     1      25.185  39.363  46.606  0.00  0.00    +0.000 C 
ATOM     22  C   UNL     1      25.450  40.314  45.433  0.00  0.00    +0.000 C 
ATOM     23  C   UNL     1      24.499  38.094  46.079  0.00  0.00    +0.000 C 
ATOM     24  C   UNL     1      24.150  40.691  44.729  0.00  0.00    +0.000 C 
ATOM     25  C   UNL     1      23.206  38.391  45.317  0.00  0.00    +0.000 C 
ATOM     26  C   UNL     1      23.377  39.468  44.247  0.00  0.00    +0.000 C 
ENDBRANCH  18  21
ENDBRANCH   2  17
BRANCH   2  27
ATOM     27  C   UNL     1      24.513  42.661  49.990  0.00  0.00    +0.000 C 
ATOM     28  O   UNL     1      25.622  43.154  50.036  0.00  0.00    +0.000 OA
ATOM     29  OXT UNL     1      23.737  42.475  51.083  0.00  0.00    +0.000 OA
ENDBRANCH   2  27
TORSDOF 6
ENDMDL
MODEL 8
REMARK VINA RESULT:      -6.6      3.034      6.706
REMARK  Name = 321671
REMARK  6 active torsions:
REMARK  status: ('A' for Active; 'I' for Inactive)
REMARK    1  A    between atoms: C_3  and  O_5
REMARK    2  A    between atoms: O_5  and  C_8
REMARK    3  A    between atoms: C_14  and  C_15
REMARK    4  A    between atoms: CA_16  and  N_17
REMARK    5  A    between atoms: CA_16  and  C_18
REMARK    6  A    between atoms: C_19  and  C_23
REMARK                            x       y       z     vdW  Elec       q    Type
REMARK                         _______ _______ _______ _____ _____    ______ ____
ROOT
ATOM      1  C   UNL     1      23.772  41.173  45.820  0.00  0.00    +0.000 C 
ATOM      2  CA  UNL     1      23.567  41.498  47.109  0.00  0.00    +0.000 C 
ENDROOT
BRANCH   1   8
ATOM      3  C   UNL     1      20.644  39.381  43.589  0.00  0.00    +0.000 A 
ATOM      4  C   UNL     1      21.699  38.586  44.034  0.00  0.00    +0.000 A 
ATOM      5  C   UNL     1      20.774  40.772  43.617  0.00  0.00    +0.000 A 
ATOM      6  C   UNL     1      22.768  39.178  44.719  0.00  0.00    +0.000 A 
ATOM      7  C   UNL     1      21.863  41.366  44.260  0.00  0.00    +0.000 A 
ATOM      8  C   UNL     1      22.825  40.566  44.881  0.00  0.00    +0.000 A 
BRANCH   3   9
ATOM      9  O   UNL     1      19.447  38.918  43.105  0.00  0.00    +0.000 OA
BRANCH   9  12
ATOM     10 BR   UNL     1      16.870  41.166  42.956  0.00  0.00    +0.000 Br
ATOM     11  C   UNL     1      17.213  39.627  44.023  0.00  0.00    +0.000 A 
ATOM     12  C   UNL     1      18.325  38.782  43.897  0.00  0.00    +0.000 A 
ATOM     13  C   UNL     1      16.175  39.289  44.911  0.00  0.00    +0.000 A 
ATOM     14  C   UNL     1      18.296  37.543  44.560  0.00  0.00    +0.000 A 
ATOM     15  C   UNL     1      16.181  38.070  45.586  0.00  0.00    +0.000 A 
ATOM     16  C   UNL     1      17.228  37.180  45.385  0.00  0.00    +0.000 A 
ENDBRANCH   9  12
ENDBRANCH   3   9
ENDBRANCH   1   8
BRANCH   2  17
ATOM     17  N   UNL     1      22.342  41.344  47.735  0.00  0.00    +0.000 N 
ATOM     18  C   UNL     1      21.294  42.197  47.402  0.00  0.00    +0.000 C 
ATOM     19  O   UNL     1      21.474  43.190  46.705  0.00  0.00    +0.000 OA
ATOM     20  H   UNL     1      22.214  40.639  48.410  0.00  0.00    +0.000 HD
BRANCH  18  21
ATOM     21  C   UNL     1      19.971  41.876  48.107  0.00  0.00    +0.000 C 
ATOM     22  C   UNL     1      19.059  41.007  47.233  0.00  0.00    +0.000 C 
ATOM     23  C   UNL     1      19.211  43.145  48.522  0.00  0.00    +0.000 C 
ATOM     24  C   UNL     1      18.613  41.766  45.987  0.00  0.00    +0.000 C 
ATOM     25  C   UNL     1      18.688  43.940  47.326  0.00  0.00    +0.000 C 
ATOM     26  C   UNL     1      17.916  43.079  46.326  0.00  0.00    +0.000 C 
ENDBRANCH  18  21
ENDBRANCH   2  17
BRANCH   2  27
ATOM     27  C   UNL     1      24.744  42.038  47.867  0.00  0.00    +0.000 C 
ATOM     28  O   UNL     1      25.856  42.183  47.403  0.00  0.00    +0.000 OA
ATOM     29  OXT UNL     1      24.434  42.310  49.156  0.00  0.00    +0.000 OA
ENDBRANCH   2  27
TORSDOF 6
ENDMDL
MODEL 9
REMARK VINA RESULT:      -6.2      2.877      7.307
REMARK  Name = 321671
REMARK  6 active torsions:
REMARK  status: ('A' for Active; 'I' for Inactive)
REMARK    1  A    between atoms: C_3  and  O_5
REMARK    2  A    between atoms: O_5  and  C_8
REMARK    3  A    between atoms: C_14  and  C_15
REMARK    4  A    between atoms: CA_16  and  N_17
REMARK    5  A    between atoms: CA_16  and  C_18
REMARK    6  A    between atoms: C_19  and  C_23
REMARK                            x       y       z     vdW  Elec       q    Type
REMARK                         _______ _______ _______ _____ _____    ______ ____
ROOT
ATOM      1  C   UNL     1      22.907  42.339  47.692  0.00  0.00    +0.000 C 
ATOM      2  CA  UNL     1      23.849  41.661  47.013  0.00  0.00    +0.000 C 
ENDROOT
BRANCH   1   8
ATOM      3  C   UNL     1      18.908  42.513  46.297  0.00  0.00    +0.000 A 
ATOM      4  C   UNL     1      19.904  43.172  45.578  0.00  0.00    +0.000 A 
ATOM      5  C   UNL     1      19.176  42.072  47.595  0.00  0.00    +0.000 A 
ATOM      6  C   UNL     1      21.219  43.173  46.063  0.00  0.00    +0.000 A 
ATOM      7  C   UNL     1      20.479  42.113  48.100  0.00  0.00    +0.000 A 
ATOM      8  C   UNL     1      21.518  42.595  47.300  0.00  0.00    +0.000 A 
BRANCH   3   9
ATOM      9  O   UNL     1      17.641  42.247  45.842  0.00  0.00    +0.000 OA
BRANCH   9  12
ATOM     10 BR   UNL     1      17.101  40.655  42.861  0.00  0.00    +0.000 Br
ATOM     11  C   UNL     1      16.772  40.191  44.678  0.00  0.00    +0.000 A 
ATOM     12  C   UNL     1      17.121  40.970  45.791  0.00  0.00    +0.000 A 
ATOM     13  C   UNL     1      16.244  38.901  44.865  0.00  0.00    +0.000 A 
ATOM     14  C   UNL     1      17.067  40.372  47.062  0.00  0.00    +0.000 A 
ATOM     15  C   UNL     1      16.166  38.338  46.138  0.00  0.00    +0.000 A 
ATOM     16  C   UNL     1      16.609  39.064  47.236  0.00  0.00    +0.000 A 
ENDBRANCH   9  12
ENDBRANCH   3   9
ENDBRANCH   1   8
BRANCH   2  17
ATOM     17  N   UNL     1      23.593  41.030  45.808  0.00  0.00    +0.000 N 
ATOM     18  C   UNL     1      23.195  39.697  45.806  0.00  0.00    +0.000 C 
ATOM     19  O   UNL     1      23.237  39.015  46.826  0.00  0.00    +0.000 OA
ATOM     20  H   UNL     1      23.694  41.520  44.959  0.00  0.00    +0.000 HD
BRANCH  18  21
ATOM     21  C   UNL     1      22.871  39.136  44.417  0.00  0.00    +0.000 C 
ATOM     22  C   UNL     1      22.971  40.216  43.333  0.00  0.00    +0.000 C 
ATOM     23  C   UNL     1      21.476  38.495  44.360  0.00  0.00    +0.000 C 
ATOM     24  C   UNL     1      21.906  41.290  43.531  0.00  0.00    +0.000 C 
ATOM     25  C   UNL     1      20.347  39.517  44.505  0.00  0.00    +0.000 C 
ATOM     26  C   UNL     1      20.496  40.710  43.562  0.00  0.00    +0.000 C 
ENDBRANCH  18  21
ENDBRANCH   2  17
BRANCH   2  27
ATOM     27  C   UNL     1      25.221  41.620  47.615  0.00  0.00    +0.000 C 
ATOM     28  O   UNL     1      25.546  42.193  48.635  0.00  0.00    +0.000 OA
ATOM     29  OXT UNL     1      26.082  40.895  46.864  0.00  0.00    +0.000 OA
ENDBRANCH   2  27
TORSDOF 6
ENDMDL
