MODEL 1
REMARK VINA RESULT:      -4.7      0.000      0.000
REMARK  Name = 324059
REMARK  8 active torsions:
REMARK  status: ('A' for Active; 'I' for Inactive)
REMARK    1  A    between atoms: C_3  and  O_5
REMARK    2  A    between atoms: O_5  and  C_8
REMARK    3  A    between atoms: C_14  and  C_15
REMARK    4  A    between atoms: C_16  and  N_17
REMARK    5  A    between atoms: C_16  and  C_18
REMARK    6  A    between atoms: C_19  and  C_23
REMARK    7  A    between atoms: N_21  and  C_24
REMARK    8  A    between atoms: C_24  and  C_27
REMARK                            x       y       z     vdW  Elec       q    Type
REMARK                         _______ _______ _______ _____ _____    ______ ____
ROOT
ATOM      1  C   UNL     1      23.375  40.419  44.073  0.00  0.00    +0.000 C 
ATOM      2  C   UNL     1      24.361  41.047  44.743  0.00  0.00    +0.000 C 
ENDROOT
BRANCH   1   8
ATOM      3  C   UNL     1      19.253  39.942  45.032  0.00  0.00    +0.000 A 
ATOM      4  C   UNL     1      20.123  40.457  45.990  0.00  0.00    +0.000 A 
ATOM      5  C   UNL     1      19.770  39.356  43.873  0.00  0.00    +0.000 A 
ATOM      6  C   UNL     1      21.498  40.525  45.719  0.00  0.00    +0.000 A 
ATOM      7  C   UNL     1      21.139  39.442  43.594  0.00  0.00    +0.000 A 
ATOM      8  C   UNL     1      22.007  40.070  44.496  0.00  0.00    +0.000 A 
BRANCH   3   9
ATOM      9  O   UNL     1      17.896  40.059  45.265  0.00  0.00    +0.000 OA
BRANCH   9  12
ATOM     10 BR   UNL     1      17.146  41.360  42.558  0.00  0.00    +0.000 Br
ATOM     11  C   UNL     1      17.026  42.081  44.309  0.00  0.00    +0.000 A 
ATOM     12  C   UNL     1      17.377  41.332  45.439  0.00  0.00    +0.000 A 
ATOM     13  C   UNL     1      16.569  43.398  44.446  0.00  0.00    +0.000 A 
ATOM     14  C   UNL     1      17.164  41.891  46.710  0.00  0.00    +0.000 A 
ATOM     15  C   UNL     1      16.440  43.968  45.713  0.00  0.00    +0.000 A 
ATOM     16  C   UNL     1      16.724  43.209  46.845  0.00  0.00    +0.000 A 
ENDBRANCH   9  12
ENDBRANCH   3   9
ENDBRANCH   1   8
BRANCH   2  17
ATOM     17  N   UNL     1      24.244  41.620  46.002  0.00  0.00    +0.000 N 
ATOM     18  C   UNL     1      24.769  40.999  47.122  0.00  0.00    +0.000 C 
ATOM     19  O   UNL     1      25.251  39.875  47.123  0.00  0.00    +0.000 OA
ATOM     20  H   UNL     1      23.780  42.482  46.100  0.00  0.00    +0.000 HD
BRANCH  18  21
ATOM     21  C   UNL     1      24.615  41.700  48.426  0.00  0.00    +0.000 A 
ATOM     22  C   UNL     1      25.772  42.231  49.011  0.00  0.00    +0.000 A 
ATOM     23  C   UNL     1      23.366  41.941  49.005  0.00  0.00    +0.000 A 
ATOM     24  C   UNL     1      25.687  43.009  50.162  0.00  0.00    +0.000 A 
ATOM     25  C   UNL     1      23.285  42.733  50.155  0.00  0.00    +0.000 A 
ATOM     26  C   UNL     1      24.442  43.273  50.726  0.00  0.00    +0.000 A 
ENDBRANCH  18  21
ENDBRANCH   2  17
BRANCH   2  27
ATOM     27  C   UNL     1      25.715  41.074  44.061  0.00  0.00    +0.000 C 
ATOM     28  O   UNL     1      26.640  40.347  44.405  0.00  0.00    +0.000 OA
ATOM     29  N   UNL     1      25.796  41.972  43.018  0.00  0.00    +0.000 N 
ATOM     30  H   UNL     1      25.030  42.562  42.831  0.00  0.00    +0.000 HD
BRANCH  29  31
ATOM     31  C   UNL     1      26.983  42.066  42.191  0.00  0.00    +0.000 C 
BRANCH  31  32
ATOM     32  C   UNL     1      27.155  43.428  41.567  0.00  0.00    +0.000 A 
ATOM     33  C   UNL     1      26.665  43.702  40.281  0.00  0.00    +0.000 A 
ATOM     34  C   UNL     1      27.804  44.454  42.272  0.00  0.00    +0.000 A 
ATOM     35  C   UNL     1      26.809  44.975  39.722  0.00  0.00    +0.000 A 
ATOM     36  C   UNL     1      27.945  45.727  41.712  0.00  0.00    +0.000 A 
ATOM     37  C   UNL     1      27.447  45.987  40.437  0.00  0.00    +0.000 A 
ENDBRANCH  31  32
ENDBRANCH  29  31
ENDBRANCH   2  27
TORSDOF 8
ENDMDL
MODEL 2
REMARK VINA RESULT:      -4.0      1.442      2.090
REMARK  Name = 324059
REMARK  8 active torsions:
REMARK  status: ('A' for Active; 'I' for Inactive)
REMARK    1  A    between atoms: C_3  and  O_5
REMARK    2  A    between atoms: O_5  and  C_8
REMARK    3  A    between atoms: C_14  and  C_15
REMARK    4  A    between atoms: C_16  and  N_17
REMARK    5  A    between atoms: C_16  and  C_18
REMARK    6  A    between atoms: C_19  and  C_23
REMARK    7  A    between atoms: N_21  and  C_24
REMARK    8  A    between atoms: C_24  and  C_27
REMARK                            x       y       z     vdW  Elec       q    Type
REMARK                         _______ _______ _______ _____ _____    ______ ____
ROOT
ATOM      1  C   UNL     1      23.497  40.753  43.816  0.00  0.00    +0.000 C 
ATOM      2  C   UNL     1      24.496  41.237  44.578  0.00  0.00    +0.000 C 
ENDROOT
BRANCH   1   8
ATOM      3  C   UNL     1      19.268  40.418  44.190  0.00  0.00    +0.000 A 
ATOM      4  C   UNL     1      19.929  41.470  44.820  0.00  0.00    +0.000 A 
ATOM      5  C   UNL     1      20.006  39.354  43.663  0.00  0.00    +0.000 A 
ATOM      6  C   UNL     1      21.330  41.533  44.786  0.00  0.00    +0.000 A 
ATOM      7  C   UNL     1      21.403  39.428  43.612  0.00  0.00    +0.000 A 
ATOM      8  C   UNL     1      22.073  40.541  44.132  0.00  0.00    +0.000 A 
BRANCH   3   9
ATOM      9  O   UNL     1      17.891  40.488  44.093  0.00  0.00    +0.000 OA
BRANCH   9  12
ATOM     10 BR   UNL     1      16.891  42.460  46.260  0.00  0.00    +0.000 Br
ATOM     11  C   UNL     1      16.647  40.582  46.142  0.00  0.00    +0.000 A 
ATOM     12  C   UNL     1      17.141  39.841  45.061  0.00  0.00    +0.000 A 
ATOM     13  C   UNL     1      15.949  39.946  47.177  0.00  0.00    +0.000 A 
ATOM     14  C   UNL     1      16.833  38.473  44.987  0.00  0.00    +0.000 A 
ATOM     15  C   UNL     1      15.721  38.570  47.128  0.00  0.00    +0.000 A 
ATOM     16  C   UNL     1      16.150  37.837  46.026  0.00  0.00    +0.000 A 
ENDBRANCH   9  12
ENDBRANCH   3   9
ENDBRANCH   1   8
BRANCH   2  17
ATOM     17  N   UNL     1      24.356  41.765  45.854  0.00  0.00    +0.000 N 
ATOM     18  C   UNL     1      24.643  41.008  46.977  0.00  0.00    +0.000 C 
ATOM     19  O   UNL     1      24.914  39.815  46.952  0.00  0.00    +0.000 OA
ATOM     20  H   UNL     1      24.047  42.693  45.963  0.00  0.00    +0.000 HD
BRANCH  18  21
ATOM     21  C   UNL     1      24.485  41.666  48.303  0.00  0.00    +0.000 A 
ATOM     22  C   UNL     1      25.643  42.160  48.919  0.00  0.00    +0.000 A 
ATOM     23  C   UNL     1      23.234  41.908  48.875  0.00  0.00    +0.000 A 
ATOM     24  C   UNL     1      25.557  42.899  50.094  0.00  0.00    +0.000 A 
ATOM     25  C   UNL     1      23.152  42.662  50.051  0.00  0.00    +0.000 A 
ATOM     26  C   UNL     1      24.309  43.163  50.652  0.00  0.00    +0.000 A 
ENDBRANCH  18  21
ENDBRANCH   2  17
BRANCH   2  27
ATOM     27  C   UNL     1      25.889  41.142  43.986  0.00  0.00    +0.000 C 
ATOM     28  O   UNL     1      26.730  40.353  44.404  0.00  0.00    +0.000 OA
ATOM     29  N   UNL     1      26.108  42.005  42.934  0.00  0.00    +0.000 N 
ATOM     30  H   UNL     1      25.405  42.647  42.684  0.00  0.00    +0.000 HD
BRANCH  29  31
ATOM     31  C   UNL     1      27.349  41.985  42.185  0.00  0.00    +0.000 C 
BRANCH  31  32
ATOM     32  C   UNL     1      27.543  43.219  41.340  0.00  0.00    +0.000 A 
ATOM     33  C   UNL     1      27.725  44.480  41.932  0.00  0.00    +0.000 A 
ATOM     34  C   UNL     1      27.553  43.127  39.940  0.00  0.00    +0.000 A 
ATOM     35  C   UNL     1      27.927  45.613  41.141  0.00  0.00    +0.000 A 
ATOM     36  C   UNL     1      27.758  44.262  39.151  0.00  0.00    +0.000 A 
ATOM     37  C   UNL     1      27.946  45.505  39.752  0.00  0.00    +0.000 A 
ENDBRANCH  31  32
ENDBRANCH  29  31
ENDBRANCH   2  27
TORSDOF 8
ENDMDL
MODEL 3
REMARK VINA RESULT:      -2.4      2.712      4.210
REMARK  Name = 324059
REMARK  8 active torsions:
REMARK  status: ('A' for Active; 'I' for Inactive)
REMARK    1  A    between atoms: C_3  and  O_5
REMARK    2  A    between atoms: O_5  and  C_8
REMARK    3  A    between atoms: C_14  and  C_15
REMARK    4  A    between atoms: C_16  and  N_17
REMARK    5  A    between atoms: C_16  and  C_18
REMARK    6  A    between atoms: C_19  and  C_23
REMARK    7  A    between atoms: N_21  and  C_24
REMARK    8  A    between atoms: C_24  and  C_27
REMARK                            x       y       z     vdW  Elec       q    Type
REMARK                         _______ _______ _______ _____ _____    ______ ____
ROOT
ATOM      1  C   UNL     1      23.624  40.655  45.116  0.00  0.00    +0.000 C 
ATOM      2  C   UNL     1      23.660  41.428  46.219  0.00  0.00    +0.000 C 
ENDROOT
BRANCH   1   8
ATOM      3  C   UNL     1      19.972  39.198  43.481  0.00  0.00    +0.000 A 
ATOM      4  C   UNL     1      20.587  38.496  44.516  0.00  0.00    +0.000 A 
ATOM      5  C   UNL     1      20.671  40.214  42.824  0.00  0.00    +0.000 A 
ATOM      6  C   UNL     1      21.838  38.912  44.992  0.00  0.00    +0.000 A 
ATOM      7  C   UNL     1      21.911  40.641  43.313  0.00  0.00    +0.000 A 
ATOM      8  C   UNL     1      22.482  40.022  44.432  0.00  0.00    +0.000 A 
BRANCH   3   9
ATOM      9  O   UNL     1      18.668  38.868  43.164  0.00  0.00    +0.000 OA
BRANCH   9  12
ATOM     10 BR   UNL     1      17.419  41.572  44.006  0.00  0.00    +0.000 Br
ATOM     11  C   UNL     1      17.145  39.844  44.741  0.00  0.00    +0.000 A 
ATOM     12  C   UNL     1      17.769  38.710  44.207  0.00  0.00    +0.000 A 
ATOM     13  C   UNL     1      16.289  39.729  45.844  0.00  0.00    +0.000 A 
ATOM     14  C   UNL     1      17.440  37.450  44.734  0.00  0.00    +0.000 A 
ATOM     15  C   UNL     1      16.035  38.478  46.407  0.00  0.00    +0.000 A 
ATOM     16  C   UNL     1      16.599  37.337  45.843  0.00  0.00    +0.000 A 
ENDBRANCH   9  12
ENDBRANCH   3   9
ENDBRANCH   1   8
BRANCH   2  17
ATOM     17  N   UNL     1      22.553  41.899  46.911  0.00  0.00    +0.000 N 
ATOM     18  C   UNL     1      21.549  42.598  46.263  0.00  0.00    +0.000 C 
ATOM     19  O   UNL     1      21.605  42.958  45.095  0.00  0.00    +0.000 OA
ATOM     20  H   UNL     1      22.479  41.735  47.878  0.00  0.00    +0.000 HD
BRANCH  18  21
ATOM     21  C   UNL     1      20.389  43.045  47.082  0.00  0.00    +0.000 A 
ATOM     22  C   UNL     1      19.368  43.744  46.424  0.00  0.00    +0.000 A 
ATOM     23  C   UNL     1      20.239  42.690  48.425  0.00  0.00    +0.000 A 
ATOM     24  C   UNL     1      18.197  44.080  47.096  0.00  0.00    +0.000 A 
ATOM     25  C   UNL     1      19.054  43.020  49.092  0.00  0.00    +0.000 A 
ATOM     26  C   UNL     1      18.033  43.704  48.426  0.00  0.00    +0.000 A 
ENDBRANCH  18  21
ENDBRANCH   2  17
BRANCH   2  27
ATOM     27  C   UNL     1      25.039  41.756  46.756  0.00  0.00    +0.000 C 
ATOM     28  O   UNL     1      25.875  40.892  46.997  0.00  0.00    +0.000 OA
ATOM     29  N   UNL     1      25.265  43.106  46.926  0.00  0.00    +0.000 N 
ATOM     30  H   UNL     1      24.530  43.741  46.762  0.00  0.00    +0.000 HD
BRANCH  29  31
ATOM     31  C   UNL     1      26.560  43.610  47.340  0.00  0.00    +0.000 C 
BRANCH  31  32
ATOM     32  C   UNL     1      27.008  44.803  46.533  0.00  0.00    +0.000 A 
ATOM     33  C   UNL     1      27.555  44.644  45.250  0.00  0.00    +0.000 A 
ATOM     34  C   UNL     1      26.875  46.100  47.051  0.00  0.00    +0.000 A 
ATOM     35  C   UNL     1      27.945  45.758  44.501  0.00  0.00    +0.000 A 
ATOM     36  C   UNL     1      27.264  47.212  46.300  0.00  0.00    +0.000 A 
ATOM     37  C   UNL     1      27.798  47.041  45.024  0.00  0.00    +0.000 A 
ENDBRANCH  31  32
ENDBRANCH  29  31
ENDBRANCH   2  27
TORSDOF 8
ENDMDL
