MODEL 1
REMARK VINA RESULT:      -7.3      0.000      0.000
REMARK  Name = 321038
REMARK  6 active torsions:
REMARK  status: ('A' for Active; 'I' for Inactive)
REMARK    1  A    between atoms: C_3  and  O_5
REMARK    2  A    between atoms: O_5  and  C_8
REMARK    3  A    between atoms: C_14  and  C_15
REMARK    4  A    between atoms: CA_16  and  N_17
REMARK    5  A    between atoms: CA_16  and  C_18
REMARK    6  A    between atoms: C_19  and  C_23
REMARK                            x       y       z     vdW  Elec       q    Type
REMARK                         _______ _______ _______ _____ _____    ______ ____
ROOT
ATOM      1  C   UNL     1      20.182  42.601  43.550  0.00  0.00    +0.000 C 
ATOM      2  CA  UNL     1      19.062  41.960  43.175  0.00  0.00    +0.000 C 
ENDROOT
BRANCH   1   8
ATOM      3  C   UNL     1      22.462  41.297  46.885  0.00  0.00    +0.000 A 
ATOM      4  C   UNL     1      21.965  42.599  46.869  0.00  0.00    +0.000 A 
ATOM      5  C   UNL     1      22.435  40.526  45.719  0.00  0.00    +0.000 A 
ATOM      6  C   UNL     1      21.300  43.075  45.733  0.00  0.00    +0.000 A 
ATOM      7  C   UNL     1      21.753  40.993  44.593  0.00  0.00    +0.000 A 
ATOM      8  C   UNL     1      21.141  42.253  44.611  0.00  0.00    +0.000 A 
BRANCH   3   9
ATOM      9  O   UNL     1      22.942  40.811  48.084  0.00  0.00    +0.000 OA
BRANCH   9  12
ATOM     10 BR   UNL     1      25.712  40.642  46.725  0.00  0.00    +0.000 Br
ATOM     11  C   UNL     1      25.204  41.574  48.298  0.00  0.00    +0.000 A 
ATOM     12  C   UNL     1      23.883  41.571  48.760  0.00  0.00    +0.000 A 
ATOM     13  C   UNL     1      26.197  42.275  48.996  0.00  0.00    +0.000 A 
ATOM     14  C   UNL     1      23.556  42.360  49.875  0.00  0.00    +0.000 A 
ATOM     15  C   UNL     1      25.870  42.993  50.148  0.00  0.00    +0.000 A 
ATOM     16  C   UNL     1      24.548  43.045  50.580  0.00  0.00    +0.000 A 
ENDBRANCH   9  12
ENDBRANCH   3   9
ENDBRANCH   1   8
BRANCH   2  17
ATOM     17  N   UNL     1      18.644  40.710  43.615  0.00  0.00    +0.000 N 
ATOM     18  C   UNL     1      17.766  40.577  44.677  0.00  0.00    +0.000 C 
ATOM     19  O   UNL     1      17.392  41.517  45.371  0.00  0.00    +0.000 OA
ATOM     20  H   UNL     1      18.980  39.902  43.162  0.00  0.00    +0.000 HD
BRANCH  18  21
ATOM     21  C   UNL     1      17.375  39.201  45.075  0.00  0.00    +0.000 A 
ATOM     22  C   UNL     1      17.633  38.168  44.161  0.00  0.00    +0.000 A 
ATOM     23  C   UNL     1      16.845  38.901  46.337  0.00  0.00    +0.000 A 
ATOM     24  C   UNL     1      17.385  36.849  44.518  0.00  0.00    +0.000 A 
ATOM     25  C   UNL     1      16.599  37.567  46.685  0.00  0.00    +0.000 A 
ATOM     26  F   UNL     1      17.652  35.871  43.642  0.00  0.00    +0.000 F 
ATOM     27  C   UNL     1      16.882  36.546  45.775  0.00  0.00    +0.000 A 
ATOM     28  F   UNL     1      16.678  35.271  46.130  0.00  0.00    +0.000 F 
ENDBRANCH  18  21
ENDBRANCH   2  17
BRANCH   2  29
ATOM     29  C   UNL     1      18.204  42.687  42.181  0.00  0.00    +0.000 C 
ATOM     30  O   UNL     1      18.352  43.845  41.838  0.00  0.00    +0.000 OA
ATOM     31  OXT UNL     1      17.219  41.888  41.712  0.00  0.00    +0.000 OA
ENDBRANCH   2  29
TORSDOF 6
ENDMDL
MODEL 2
REMARK VINA RESULT:      -7.1      1.350      1.495
REMARK  Name = 321038
REMARK  6 active torsions:
REMARK  status: ('A' for Active; 'I' for Inactive)
REMARK    1  A    between atoms: C_3  and  O_5
REMARK    2  A    between atoms: O_5  and  C_8
REMARK    3  A    between atoms: C_14  and  C_15
REMARK    4  A    between atoms: CA_16  and  N_17
REMARK    5  A    between atoms: CA_16  and  C_18
REMARK    6  A    between atoms: C_19  and  C_23
REMARK                            x       y       z     vdW  Elec       q    Type
REMARK                         _______ _______ _______ _____ _____    ______ ____
ROOT
ATOM      1  C   UNL     1      18.783  43.509  45.214  0.00  0.00    +0.000 C 
ATOM      2  CA  UNL     1      17.801  42.741  44.710  0.00  0.00    +0.000 C 
ENDROOT
BRANCH   1   8
ATOM      3  C   UNL     1      21.952  41.843  47.495  0.00  0.00    +0.000 A 
ATOM      4  C   UNL     1      20.685  41.944  48.065  0.00  0.00    +0.000 A 
ATOM      5  C   UNL     1      22.235  42.513  46.300  0.00  0.00    +0.000 A 
ATOM      6  C   UNL     1      19.656  42.583  47.364  0.00  0.00    +0.000 A 
ATOM      7  C   UNL     1      21.202  43.132  45.591  0.00  0.00    +0.000 A 
ATOM      8  C   UNL     1      19.897  43.130  46.098  0.00  0.00    +0.000 A 
BRANCH   3   9
ATOM      9  O   UNL     1      22.881  41.048  48.135  0.00  0.00    +0.000 OA
BRANCH   9  12
ATOM     10 BR   UNL     1      25.489  40.578  46.547  0.00  0.00    +0.000 Br
ATOM     11  C   UNL     1      25.229  41.526  48.169  0.00  0.00    +0.000 A 
ATOM     12  C   UNL     1      23.960  41.672  48.740  0.00  0.00    +0.000 A 
ATOM     13  C   UNL     1      26.354  42.085  48.791  0.00  0.00    +0.000 A 
ATOM     14  C   UNL     1      23.824  42.468  49.889  0.00  0.00    +0.000 A 
ATOM     15  C   UNL     1      26.212  42.810  49.976  0.00  0.00    +0.000 A 
ATOM     16  C   UNL     1      24.946  43.012  50.517  0.00  0.00    +0.000 A 
ENDBRANCH   9  12
ENDBRANCH   3   9
ENDBRANCH   1   8
BRANCH   2  17
ATOM     17  N   UNL     1      17.718  41.357  44.787  0.00  0.00    +0.000 N 
ATOM     18  C   UNL     1      16.896  40.736  45.711  0.00  0.00    +0.000 C 
ATOM     19  O   UNL     1      16.285  41.336  46.590  0.00  0.00    +0.000 OA
ATOM     20  H   UNL     1      18.256  40.807  44.171  0.00  0.00    +0.000 HD
BRANCH  18  21
ATOM     21  C   UNL     1      16.872  39.251  45.718  0.00  0.00    +0.000 A 
ATOM     22  C   UNL     1      17.535  38.591  44.672  0.00  0.00    +0.000 A 
ATOM     23  C   UNL     1      16.291  38.509  46.755  0.00  0.00    +0.000 A 
ATOM     24  C   UNL     1      17.635  37.206  44.680  0.00  0.00    +0.000 A 
ATOM     25  C   UNL     1      16.399  37.113  46.752  0.00  0.00    +0.000 A 
ATOM     26  F   UNL     1      18.287  36.590  43.685  0.00  0.00    +0.000 F 
ATOM     27  C   UNL     1      17.082  36.470  45.718  0.00  0.00    +0.000 A 
ATOM     28  F   UNL     1      17.211  35.137  45.742  0.00  0.00    +0.000 F 
ENDBRANCH  18  21
ENDBRANCH   2  17
BRANCH   2  29
ATOM     29  C   UNL     1      16.707  43.480  43.995  0.00  0.00    +0.000 C 
ATOM     30  O   UNL     1      16.229  44.543  44.347  0.00  0.00    +0.000 OA
ATOM     31  OXT UNL     1      16.299  42.804  42.898  0.00  0.00    +0.000 OA
ENDBRANCH   2  29
TORSDOF 6
ENDMDL
MODEL 3
REMARK VINA RESULT:      -6.9      4.284      8.144
REMARK  Name = 321038
REMARK  6 active torsions:
REMARK  status: ('A' for Active; 'I' for Inactive)
REMARK    1  A    between atoms: C_3  and  O_5
REMARK    2  A    between atoms: O_5  and  C_8
REMARK    3  A    between atoms: C_14  and  C_15
REMARK    4  A    between atoms: CA_16  and  N_17
REMARK    5  A    between atoms: CA_16  and  C_18
REMARK    6  A    between atoms: C_19  and  C_23
REMARK                            x       y       z     vdW  Elec       q    Type
REMARK                         _______ _______ _______ _____ _____    ______ ____
ROOT
ATOM      1  C   UNL     1      23.220  38.825  44.586  0.00  0.00    +0.000 C 
ATOM      2  CA  UNL     1      23.857  38.677  45.760  0.00  0.00    +0.000 C 
ENDROOT
BRANCH   1   8
ATOM      3  C   UNL     1      20.196  41.718  43.875  0.00  0.00    +0.000 A 
ATOM      4  C   UNL     1      20.155  40.509  43.184  0.00  0.00    +0.000 A 
ATOM      5  C   UNL     1      21.344  42.076  44.588  0.00  0.00    +0.000 A 
ATOM      6  C   UNL     1      21.200  39.589  43.331  0.00  0.00    +0.000 A 
ATOM      7  C   UNL     1      22.377  41.148  44.752  0.00  0.00    +0.000 A 
ATOM      8  C   UNL     1      22.288  39.881  44.161  0.00  0.00    +0.000 A 
BRANCH   3   9
ATOM      9  O   UNL     1      19.065  42.509  43.848  0.00  0.00    +0.000 OA
BRANCH   9  12
ATOM     10 BR   UNL     1      16.801  40.410  43.968  0.00  0.00    +0.000 Br
ATOM     11  C   UNL     1      17.237  41.774  45.212  0.00  0.00    +0.000 A 
ATOM     12  C   UNL     1      18.329  42.627  45.016  0.00  0.00    +0.000 A 
ATOM     13  C   UNL     1      16.428  41.910  46.349  0.00  0.00    +0.000 A 
ATOM     14  C   UNL     1      18.654  43.552  46.022  0.00  0.00    +0.000 A 
ATOM     15  C   UNL     1      16.719  42.886  47.304  0.00  0.00    +0.000 A 
ATOM     16  C   UNL     1      17.839  43.697  47.147  0.00  0.00    +0.000 A 
ENDBRANCH   9  12
ENDBRANCH   3   9
ENDBRANCH   1   8
BRANCH   2  17
ATOM     17  N   UNL     1      23.898  39.603  46.795  0.00  0.00    +0.000 N 
ATOM     18  C   UNL     1      24.925  40.527  46.892  0.00  0.00    +0.000 C 
ATOM     19  O   UNL     1      25.913  40.525  46.165  0.00  0.00    +0.000 OA
ATOM     20  H   UNL     1      23.184  39.602  47.472  0.00  0.00    +0.000 HD
BRANCH  18  21
ATOM     21  C   UNL     1      24.884  41.479  48.031  0.00  0.00    +0.000 A 
ATOM     22  C   UNL     1      23.626  41.783  48.572  0.00  0.00    +0.000 A 
ATOM     23  C   UNL     1      26.043  42.004  48.619  0.00  0.00    +0.000 A 
ATOM     24  C   UNL     1      23.533  42.585  49.703  0.00  0.00    +0.000 A 
ATOM     25  C   UNL     1      25.936  42.810  49.759  0.00  0.00    +0.000 A 
ATOM     26  F   UNL     1      22.326  42.853  50.219  0.00  0.00    +0.000 F 
ATOM     27  C   UNL     1      24.679  43.087  50.301  0.00  0.00    +0.000 A 
ATOM     28  F   UNL     1      24.589  43.830  51.412  0.00  0.00    +0.000 F 
ENDBRANCH  18  21
ENDBRANCH   2  17
BRANCH   2  29
ATOM     29  C   UNL     1      24.590  37.379  45.938  0.00  0.00    +0.000 C 
ATOM     30  O   UNL     1      25.617  37.067  45.365  0.00  0.00    +0.000 OA
ATOM     31  OXT UNL     1      23.953  36.577  46.820  0.00  0.00    +0.000 OA
ENDBRANCH   2  29
TORSDOF 6
ENDMDL
MODEL 4
REMARK VINA RESULT:      -6.7      1.454      1.925
REMARK  Name = 321038
REMARK  6 active torsions:
REMARK  status: ('A' for Active; 'I' for Inactive)
REMARK    1  A    between atoms: C_3  and  O_5
REMARK    2  A    between atoms: O_5  and  C_8
REMARK    3  A    between atoms: C_14  and  C_15
REMARK    4  A    between atoms: CA_16  and  N_17
REMARK    5  A    between atoms: CA_16  and  C_18
REMARK    6  A    between atoms: C_19  and  C_23
REMARK                            x       y       z     vdW  Elec       q    Type
REMARK                         _______ _______ _______ _____ _____    ______ ____
ROOT
ATOM      1  C   UNL     1      18.827  43.498  45.201  0.00  0.00    +0.000 C 
ATOM      2  CA  UNL     1      17.751  42.770  44.857  0.00  0.00    +0.000 C 
ENDROOT
BRANCH   1   8
ATOM      3  C   UNL     1      21.993  41.863  47.508  0.00  0.00    +0.000 A 
ATOM      4  C   UNL     1      20.752  42.067  48.107  0.00  0.00    +0.000 A 
ATOM      5  C   UNL     1      22.265  42.426  46.258  0.00  0.00    +0.000 A 
ATOM      6  C   UNL     1      19.729  42.698  47.389  0.00  0.00    +0.000 A 
ATOM      7  C   UNL     1      21.239  43.037  45.533  0.00  0.00    +0.000 A 
ATOM      8  C   UNL     1      19.952  43.135  46.078  0.00  0.00    +0.000 A 
BRANCH   3   9
ATOM      9  O   UNL     1      22.906  41.076  48.180  0.00  0.00    +0.000 OA
BRANCH   9  12
ATOM     10 BR   UNL     1      25.519  40.620  46.595  0.00  0.00    +0.000 Br
ATOM     11  C   UNL     1      25.252  41.567  48.217  0.00  0.00    +0.000 A 
ATOM     12  C   UNL     1      23.981  41.706  48.787  0.00  0.00    +0.000 A 
ATOM     13  C   UNL     1      26.373  42.132  48.840  0.00  0.00    +0.000 A 
ATOM     14  C   UNL     1      23.840  42.501  49.936  0.00  0.00    +0.000 A 
ATOM     15  C   UNL     1      26.226  42.855  50.025  0.00  0.00    +0.000 A 
ATOM     16  C   UNL     1      24.958  43.050  50.565  0.00  0.00    +0.000 A 
ENDBRANCH   9  12
ENDBRANCH   3   9
ENDBRANCH   1   8
BRANCH   2  17
ATOM     17  N   UNL     1      17.546  41.424  45.133  0.00  0.00    +0.000 N 
ATOM     18  C   UNL     1      18.145  40.435  44.373  0.00  0.00    +0.000 C 
ATOM     19  O   UNL     1      18.787  40.656  43.351  0.00  0.00    +0.000 OA
ATOM     20  H   UNL     1      16.963  41.170  45.885  0.00  0.00    +0.000 HD
BRANCH  18  21
ATOM     21  C   UNL     1      17.868  39.024  44.745  0.00  0.00    +0.000 A 
ATOM     22  C   UNL     1      17.173  38.797  45.942  0.00  0.00    +0.000 A 
ATOM     23  C   UNL     1      18.202  37.944  43.916  0.00  0.00    +0.000 A 
ATOM     24  C   UNL     1      16.795  37.507  46.291  0.00  0.00    +0.000 A 
ATOM     25  C   UNL     1      17.815  36.648  44.278  0.00  0.00    +0.000 A 
ATOM     26  F   UNL     1      16.116  37.308  47.428  0.00  0.00    +0.000 F 
ATOM     27  C   UNL     1      17.103  36.439  45.461  0.00  0.00    +0.000 A 
ATOM     28  F   UNL     1      16.707  35.201  45.782  0.00  0.00    +0.000 F 
ENDBRANCH  18  21
ENDBRANCH   2  17
BRANCH   2  29
ATOM     29  C   UNL     1      16.689  43.509  44.095  0.00  0.00    +0.000 C 
ATOM     30  O   UNL     1      16.200  44.574  44.423  0.00  0.00    +0.000 OA
ATOM     31  OXT UNL     1      16.326  42.830  42.984  0.00  0.00    +0.000 OA
ENDBRANCH   2  29
TORSDOF 6
ENDMDL
MODEL 5
REMARK VINA RESULT:      -6.3      3.612      7.245
REMARK  Name = 321038
REMARK  6 active torsions:
REMARK  status: ('A' for Active; 'I' for Inactive)
REMARK    1  A    between atoms: C_3  and  O_5
REMARK    2  A    between atoms: O_5  and  C_8
REMARK    3  A    between atoms: C_14  and  C_15
REMARK    4  A    between atoms: CA_16  and  N_17
REMARK    5  A    between atoms: CA_16  and  C_18
REMARK    6  A    between atoms: C_19  and  C_23
REMARK                            x       y       z     vdW  Elec       q    Type
REMARK                         _______ _______ _______ _____ _____    ______ ____
ROOT
ATOM      1  C   UNL     1      23.945  40.870  46.066  0.00  0.00    +0.000 C 
ATOM      2  CA  UNL     1      23.642  41.742  47.043  0.00  0.00    +0.000 C 
ENDROOT
BRANCH   1   8
ATOM      3  C   UNL     1      20.947  39.342  43.479  0.00  0.00    +0.000 A 
ATOM      4  C   UNL     1      21.665  38.459  44.282  0.00  0.00    +0.000 A 
ATOM      5  C   UNL     1      21.380  40.664  43.334  0.00  0.00    +0.000 A 
ATOM      6  C   UNL     1      22.724  38.935  45.064  0.00  0.00    +0.000 A 
ATOM      7  C   UNL     1      22.424  41.143  44.130  0.00  0.00    +0.000 A 
ATOM      8  C   UNL     1      23.072  40.291  45.033  0.00  0.00    +0.000 A 
BRANCH   3   9
ATOM      9  O   UNL     1      19.801  38.869  42.873  0.00  0.00    +0.000 OA
BRANCH   9  12
ATOM     10 BR   UNL     1      18.024  41.397  42.859  0.00  0.00    +0.000 Br
ATOM     11  C   UNL     1      17.780  39.766  43.798  0.00  0.00    +0.000 A 
ATOM     12  C   UNL     1      18.675  38.699  43.663  0.00  0.00    +0.000 A 
ATOM     13  C   UNL     1      16.667  39.655  44.643  0.00  0.00    +0.000 A 
ATOM     14  C   UNL     1      18.383  37.487  44.311  0.00  0.00    +0.000 A 
ATOM     15  C   UNL     1      16.432  38.469  45.341  0.00  0.00    +0.000 A 
ATOM     16  C   UNL     1      17.283  37.382  45.164  0.00  0.00    +0.000 A 
ENDBRANCH   9  12
ENDBRANCH   3   9
ENDBRANCH   1   8
BRANCH   2  17
ATOM     17  N   UNL     1      22.442  42.426  47.190  0.00  0.00    +0.000 N 
ATOM     18  C   UNL     1      21.248  41.751  47.375  0.00  0.00    +0.000 C 
ATOM     19  O   UNL     1      21.138  40.531  47.305  0.00  0.00    +0.000 OA
ATOM     20  H   UNL     1      22.441  43.410  47.163  0.00  0.00    +0.000 HD
BRANCH  18  21
ATOM     21  C   UNL     1      20.016  42.566  47.525  0.00  0.00    +0.000 A 
ATOM     22  C   UNL     1      19.270  42.827  46.366  0.00  0.00    +0.000 A 
ATOM     23  C   UNL     1      19.546  43.003  48.771  0.00  0.00    +0.000 A 
ATOM     24  C   UNL     1      18.056  43.496  46.458  0.00  0.00    +0.000 A 
ATOM     25  C   UNL     1      18.320  43.676  48.851  0.00  0.00    +0.000 A 
ATOM     26  F   UNL     1      17.346  43.722  45.345  0.00  0.00    +0.000 F 
ATOM     27  C   UNL     1      17.577  43.909  47.692  0.00  0.00    +0.000 A 
ATOM     28  F   UNL     1      16.389  44.522  47.783  0.00  0.00    +0.000 F 
ENDBRANCH  18  21
ENDBRANCH   2  17
BRANCH   2  29
ATOM     29  C   UNL     1      24.727  41.985  48.051  0.00  0.00    +0.000 C 
ATOM     30  O   UNL     1      25.919  42.020  47.808  0.00  0.00    +0.000 OA
ATOM     31  OXT UNL     1      24.212  42.150  49.290  0.00  0.00    +0.000 OA
ENDBRANCH   2  29
TORSDOF 6
ENDMDL
MODEL 6
REMARK VINA RESULT:      -6.2      1.713      2.116
REMARK  Name = 321038
REMARK  6 active torsions:
REMARK  status: ('A' for Active; 'I' for Inactive)
REMARK    1  A    between atoms: C_3  and  O_5
REMARK    2  A    between atoms: O_5  and  C_8
REMARK    3  A    between atoms: C_14  and  C_15
REMARK    4  A    between atoms: CA_16  and  N_17
REMARK    5  A    between atoms: CA_16  and  C_18
REMARK    6  A    between atoms: C_19  and  C_23
REMARK                            x       y       z     vdW  Elec       q    Type
REMARK                         _______ _______ _______ _____ _____    ______ ____
ROOT
ATOM      1  C   UNL     1      18.825  43.534  45.306  0.00  0.00    +0.000 C 
ATOM      2  CA  UNL     1      17.849  42.781  44.772  0.00  0.00    +0.000 C 
ENDROOT
BRANCH   1   8
ATOM      3  C   UNL     1      21.895  41.801  47.671  0.00  0.00    +0.000 A 
ATOM      4  C   UNL     1      20.642  42.018  48.238  0.00  0.00    +0.000 A 
ATOM      5  C   UNL     1      22.212  42.379  46.438  0.00  0.00    +0.000 A 
ATOM      6  C   UNL     1      19.651  42.681  47.504  0.00  0.00    +0.000 A 
ATOM      7  C   UNL     1      21.218  43.022  45.696  0.00  0.00    +0.000 A 
ATOM      8  C   UNL     1      19.919  43.136  46.207  0.00  0.00    +0.000 A 
BRANCH   3   9
ATOM      9  O   UNL     1      22.774  40.985  48.354  0.00  0.00    +0.000 OA
BRANCH   9  12
ATOM     10 BR   UNL     1      23.978  42.885  50.472  0.00  0.00    +0.000 Br
ATOM     11  C   UNL     1      24.825  42.046  48.996  0.00  0.00    +0.000 A 
ATOM     12  C   UNL     1      24.131  41.178  48.146  0.00  0.00    +0.000 A 
ATOM     13  C   UNL     1      26.182  42.320  48.774  0.00  0.00    +0.000 A 
ATOM     14  C   UNL     1      24.841  40.516  47.131  0.00  0.00    +0.000 A 
ATOM     15  C   UNL     1      26.856  41.712  47.713  0.00  0.00    +0.000 A 
ATOM     16  C   UNL     1      26.188  40.801  46.900  0.00  0.00    +0.000 A 
ENDBRANCH   9  12
ENDBRANCH   3   9
ENDBRANCH   1   8
BRANCH   2  17
ATOM     17  N   UNL     1      17.755  41.396  44.829  0.00  0.00    +0.000 N 
ATOM     18  C   UNL     1      16.931  40.768  45.748  0.00  0.00    +0.000 C 
ATOM     19  O   UNL     1      16.330  41.360  46.639  0.00  0.00    +0.000 OA
ATOM     20  H   UNL     1      18.284  40.851  44.203  0.00  0.00    +0.000 HD
BRANCH  18  21
ATOM     21  C   UNL     1      16.895  39.284  45.733  0.00  0.00    +0.000 A 
ATOM     22  C   UNL     1      17.573  38.633  44.691  0.00  0.00    +0.000 A 
ATOM     23  C   UNL     1      16.287  38.532  46.748  0.00  0.00    +0.000 A 
ATOM     24  C   UNL     1      17.661  37.247  44.682  0.00  0.00    +0.000 A 
ATOM     25  C   UNL     1      16.384  37.136  46.728  0.00  0.00    +0.000 A 
ATOM     26  F   UNL     1      18.327  36.639  43.691  0.00  0.00    +0.000 F 
ATOM     27  C   UNL     1      17.081  36.501  45.698  0.00  0.00    +0.000 A 
ATOM     28  F   UNL     1      17.199  35.167  45.705  0.00  0.00    +0.000 F 
ENDBRANCH  18  21
ENDBRANCH   2  17
BRANCH   2  29
ATOM     29  C   UNL     1      16.775  43.537  44.045  0.00  0.00    +0.000 C 
ATOM     30  O   UNL     1      16.273  44.581  44.420  0.00  0.00    +0.000 OA
ATOM     31  OXT UNL     1      16.416  42.900  42.908  0.00  0.00    +0.000 OA
ENDBRANCH   2  29
TORSDOF 6
ENDMDL
MODEL 7
REMARK VINA RESULT:      -4.7      3.463      4.519
REMARK  Name = 321038
REMARK  6 active torsions:
REMARK  status: ('A' for Active; 'I' for Inactive)
REMARK    1  A    between atoms: C_3  and  O_5
REMARK    2  A    between atoms: O_5  and  C_8
REMARK    3  A    between atoms: C_14  and  C_15
REMARK    4  A    between atoms: CA_16  and  N_17
REMARK    5  A    between atoms: CA_16  and  C_18
REMARK    6  A    between atoms: C_19  and  C_23
REMARK                            x       y       z     vdW  Elec       q    Type
REMARK                         _______ _______ _______ _____ _____    ______ ____
ROOT
ATOM      1  C   UNL     1      20.712  38.710  44.169  0.00  0.00    +0.000 C 
ATOM      2  CA  UNL     1      19.510  39.300  44.287  0.00  0.00    +0.000 C 
ENDROOT
BRANCH   1   8
ATOM      3  C   UNL     1      24.286  40.222  45.890  0.00  0.00    +0.000 A 
ATOM      4  C   UNL     1      23.454  41.087  45.184  0.00  0.00    +0.000 A 
ATOM      5  C   UNL     1      24.085  38.840  45.811  0.00  0.00    +0.000 A 
ATOM      6  C   UNL     1      22.326  40.583  44.525  0.00  0.00    +0.000 A 
ATOM      7  C   UNL     1      22.948  38.340  45.172  0.00  0.00    +0.000 A 
ATOM      8  C   UNL     1      22.037  39.214  44.564  0.00  0.00    +0.000 A 
BRANCH   3   9
ATOM      9  O   UNL     1      25.274  40.782  46.674  0.00  0.00    +0.000 OA
BRANCH   9  12
ATOM     10 BR   UNL     1      27.702  41.538  48.430  0.00  0.00    +0.000 Br
ATOM     11  C   UNL     1      25.859  41.886  48.720  0.00  0.00    +0.000 A 
ATOM     12  C   UNL     1      24.883  41.498  47.794  0.00  0.00    +0.000 A 
ATOM     13  C   UNL     1      25.493  42.550  49.898  0.00  0.00    +0.000 A 
ATOM     14  C   UNL     1      23.549  41.872  48.023  0.00  0.00    +0.000 A 
ATOM     15  C   UNL     1      24.152  42.847  50.148  0.00  0.00    +0.000 A 
ATOM     16  C   UNL     1      23.183  42.520  49.205  0.00  0.00    +0.000 A 
ENDBRANCH   9  12
ENDBRANCH   3   9
ENDBRANCH   1   8
BRANCH   2  17
ATOM     17  N   UNL     1      19.235  40.476  44.972  0.00  0.00    +0.000 N 
ATOM     18  C   UNL     1      18.330  40.503  46.020  0.00  0.00    +0.000 C 
ATOM     19  O   UNL     1      17.629  39.548  46.338  0.00  0.00    +0.000 OA
ATOM     20  H   UNL     1      19.694  41.307  44.709  0.00  0.00    +0.000 HD
BRANCH  18  21
ATOM     21  C   UNL     1      18.102  41.807  46.694  0.00  0.00    +0.000 A 
ATOM     22  C   UNL     1      18.826  42.060  47.868  0.00  0.00    +0.000 A 
ATOM     23  C   UNL     1      17.267  42.798  46.160  0.00  0.00    +0.000 A 
ATOM     24  C   UNL     1      18.733  43.301  48.486  0.00  0.00    +0.000 A 
ATOM     25  C   UNL     1      17.182  44.045  46.791  0.00  0.00    +0.000 A 
ATOM     26  F   UNL     1      19.444  43.535  49.597  0.00  0.00    +0.000 F 
ATOM     27  C   UNL     1      17.926  44.292  47.947  0.00  0.00    +0.000 A 
ATOM     28  F   UNL     1      17.866  45.499  48.524  0.00  0.00    +0.000 F 
ENDBRANCH  18  21
ENDBRANCH   2  17
BRANCH   2  29
ATOM     29  C   UNL     1      18.375  38.592  43.606  0.00  0.00    +0.000 C 
ATOM     30  O   UNL     1      18.185  37.389  43.621  0.00  0.00    +0.000 OA
ATOM     31  OXT UNL     1      17.578  39.466  42.952  0.00  0.00    +0.000 OA
ENDBRANCH   2  29
TORSDOF 6
ENDMDL
MODEL 8
REMARK VINA RESULT:      -4.5      3.640      5.061
REMARK  Name = 321038
REMARK  6 active torsions:
REMARK  status: ('A' for Active; 'I' for Inactive)
REMARK    1  A    between atoms: C_3  and  O_5
REMARK    2  A    between atoms: O_5  and  C_8
REMARK    3  A    between atoms: C_14  and  C_15
REMARK    4  A    between atoms: CA_16  and  N_17
REMARK    5  A    between atoms: CA_16  and  C_18
REMARK    6  A    between atoms: C_19  and  C_23
REMARK                            x       y       z     vdW  Elec       q    Type
REMARK                         _______ _______ _______ _____ _____    ______ ____
ROOT
ATOM      1  C   UNL     1      18.992  37.955  44.398  0.00  0.00    +0.000 C 
ATOM      2  CA  UNL     1      17.959  38.415  45.124  0.00  0.00    +0.000 C 
ENDROOT
BRANCH   1   8
ATOM      3  C   UNL     1      22.651  40.079  44.057  0.00  0.00    +0.000 A 
ATOM      4  C   UNL     1      21.486  40.647  43.547  0.00  0.00    +0.000 A 
ATOM      5  C   UNL     1      22.663  38.733  44.434  0.00  0.00    +0.000 A 
ATOM      6  C   UNL     1      20.292  39.916  43.560  0.00  0.00    +0.000 A 
ATOM      7  C   UNL     1      21.468  38.010  44.467  0.00  0.00    +0.000 A 
ATOM      8  C   UNL     1      20.267  38.614  44.073  0.00  0.00    +0.000 A 
BRANCH   3   9
ATOM      9  O   UNL     1      23.755  40.896  44.194  0.00  0.00    +0.000 OA
BRANCH   9  12
ATOM     10 BR   UNL     1      21.889  42.426  46.125  0.00  0.00    +0.000 Br
ATOM     11  C   UNL     1      23.620  41.717  46.442  0.00  0.00    +0.000 A 
ATOM     12  C   UNL     1      24.319  41.014  45.454  0.00  0.00    +0.000 A 
ATOM     13  C   UNL     1      24.190  41.916  47.707  0.00  0.00    +0.000 A 
ATOM     14  C   UNL     1      25.554  40.432  45.786  0.00  0.00    +0.000 A 
ATOM     15  C   UNL     1      25.453  41.396  47.997  0.00  0.00    +0.000 A 
ATOM     16  C   UNL     1      26.128  40.644  47.041  0.00  0.00    +0.000 A 
ENDBRANCH   9  12
ENDBRANCH   3   9
ENDBRANCH   1   8
BRANCH   2  17
ATOM     17  N   UNL     1      17.941  39.581  45.880  0.00  0.00    +0.000 N 
ATOM     18  C   UNL     1      17.493  40.777  45.346  0.00  0.00    +0.000 C 
ATOM     19  O   UNL     1      17.200  40.927  44.164  0.00  0.00    +0.000 OA
ATOM     20  H   UNL     1      18.252  39.555  46.814  0.00  0.00    +0.000 HD
BRANCH  18  21
ATOM     21  C   UNL     1      17.509  41.970  46.230  0.00  0.00    +0.000 A 
ATOM     22  C   UNL     1      18.460  41.996  47.261  0.00  0.00    +0.000 A 
ATOM     23  C   UNL     1      16.677  43.078  46.020  0.00  0.00    +0.000 A 
ATOM     24  C   UNL     1      18.592  43.128  48.055  0.00  0.00    +0.000 A 
ATOM     25  C   UNL     1      16.819  44.214  46.826  0.00  0.00    +0.000 A 
ATOM     26  F   UNL     1      19.517  43.145  49.023  0.00  0.00    +0.000 F 
ATOM     27  C   UNL     1      17.786  44.235  47.834  0.00  0.00    +0.000 A 
ATOM     28  F   UNL     1      17.939  45.339  48.577  0.00  0.00    +0.000 F 
ENDBRANCH  18  21
ENDBRANCH   2  17
BRANCH   2  29
ATOM     29  C   UNL     1      16.724  37.563  45.102  0.00  0.00    +0.000 C 
ATOM     30  O   UNL     1      15.674  37.830  45.658  0.00  0.00    +0.000 OA
ATOM     31  OXT UNL     1      16.924  36.434  44.386  0.00  0.00    +0.000 OA
ENDBRANCH   2  29
TORSDOF 6
ENDMDL
