MODEL 1
REMARK VINA RESULT:      -9.0      0.000      0.000
REMARK  Name = 323412
REMARK  8 active torsions:
REMARK  status: ('A' for Active; 'I' for Inactive)
REMARK    1  A    between atoms: C_3  and  O_5
REMARK    2  A    between atoms: O_5  and  C_8
REMARK    3  A    between atoms: C_14  and  C_15
REMARK    4  A    between atoms: CA_16  and  N_17
REMARK    5  A    between atoms: CA_16  and  C_18
REMARK    6  A    between atoms: C_19  and  C_23
REMARK    7  A    between atoms: C_23  and  C_24
REMARK    8  A    between atoms: C_24  and  C_25
REMARK                            x       y       z     vdW  Elec       q    Type
REMARK                         _______ _______ _______ _____ _____    ______ ____
ROOT
ATOM      1  C   UNL     1      21.875  41.371  47.049  0.00  0.00    +0.000 A 
ATOM      2  C   UNL     1      21.008  42.455  46.916  0.00  0.00    +0.000 A 
ATOM      3  C   UNL     1      22.158  40.576  45.934  0.00  0.00    +0.000 A 
ATOM      4  C   UNL     1      20.230  42.573  45.757  0.00  0.00    +0.000 A 
ATOM      5  C   UNL     1      21.415  40.722  44.762  0.00  0.00    +0.000 A 
ATOM      6  C   UNL     1      20.382  41.667  44.703  0.00  0.00    +0.000 A 
ENDROOT
BRANCH   6   7
ATOM      7  C   UNL     1      19.348  41.523  43.677  0.00  0.00    +0.000 C 
ATOM      8  CA  UNL     1      18.211  40.805  43.689  0.00  0.00    +0.000 C 
BRANCH   8   9
ATOM      9  N   UNL     1      17.842  39.900  44.661  0.00  0.00    +0.000 N 
ATOM     10  C   UNL     1      17.027  40.189  45.741  0.00  0.00    +0.000 C 
ATOM     11  O   UNL     1      16.595  41.304  46.026  0.00  0.00    +0.000 OA
ATOM     12  H   UNL     1      18.182  38.978  44.580  0.00  0.00    +0.000 HD
BRANCH  10  13
ATOM     13  C   UNL     1      16.737  39.003  46.633  0.00  0.00    +0.000 C 
BRANCH  13  14
ATOM     14  C   UNL     1      16.047  37.899  45.844  0.00  0.00    +0.000 C 
BRANCH  14  15
ATOM     15  C   UNL     1      17.019  36.796  45.508  0.00  0.00    +0.000 C 
ATOM     16  O   UNL     1      17.071  35.733  46.108  0.00  0.00    +0.000 OA
ATOM     17  O   UNL     1      17.810  37.083  44.455  0.00  0.00    +0.000 OA
ENDBRANCH  14  15
ENDBRANCH  13  14
ENDBRANCH  10  13
ENDBRANCH   8   9
BRANCH   8  18
ATOM     18  C   UNL     1      17.237  41.112  42.584  0.00  0.00    +0.000 C 
ATOM     19  O   UNL     1      16.170  40.551  42.408  0.00  0.00    +0.000 OA
ATOM     20  OXT UNL     1      17.680  42.111  41.787  0.00  0.00    +0.000 OA
ENDBRANCH   8  18
ENDBRANCH   6   7
BRANCH   1  21
ATOM     21  O   UNL     1      22.483  40.983  48.213  0.00  0.00    +0.000 OA
BRANCH  21  24
ATOM     22  I   UNL     1      25.563  40.576  46.367  0.00  0.00    +0.000 I 
ATOM     23  C   UNL     1      24.961  41.469  48.184  0.00  0.00    +0.000 A 
ATOM     24  C   UNL     1      23.647  41.567  48.670  0.00  0.00    +0.000 A 
ATOM     25  C   UNL     1      26.003  42.149  48.845  0.00  0.00    +0.000 A 
ATOM     26  C   UNL     1      23.395  42.479  49.711  0.00  0.00    +0.000 A 
ATOM     27  C   UNL     1      25.733  43.020  49.899  0.00  0.00    +0.000 A 
ATOM     28  C   UNL     1      24.421  43.215  50.307  0.00  0.00    +0.000 A 
ENDBRANCH  21  24
ENDBRANCH   1  21
TORSDOF 8
ENDMDL
MODEL 2
REMARK VINA RESULT:      -8.2      3.172      7.277
REMARK  Name = 323412
REMARK  8 active torsions:
REMARK  status: ('A' for Active; 'I' for Inactive)
REMARK    1  A    between atoms: C_3  and  O_5
REMARK    2  A    between atoms: O_5  and  C_8
REMARK    3  A    between atoms: C_14  and  C_15
REMARK    4  A    between atoms: CA_16  and  N_17
REMARK    5  A    between atoms: CA_16  and  C_18
REMARK    6  A    between atoms: C_19  and  C_23
REMARK    7  A    between atoms: C_23  and  C_24
REMARK    8  A    between atoms: C_24  and  C_25
REMARK                            x       y       z     vdW  Elec       q    Type
REMARK                         _______ _______ _______ _____ _____    ______ ____
ROOT
ATOM      1  C   UNL     1      18.892  42.844  46.432  0.00  0.00    +0.000 A 
ATOM      2  C   UNL     1      19.936  43.347  45.656  0.00  0.00    +0.000 A 
ATOM      3  C   UNL     1      19.141  42.456  47.752  0.00  0.00    +0.000 A 
ATOM      4  C   UNL     1      21.254  43.207  46.107  0.00  0.00    +0.000 A 
ATOM      5  C   UNL     1      20.452  42.359  48.218  0.00  0.00    +0.000 A 
ATOM      6  C   UNL     1      21.522  42.650  47.361  0.00  0.00    +0.000 A 
ENDROOT
BRANCH   6   7
ATOM      7  C   UNL     1      22.854  42.139  47.691  0.00  0.00    +0.000 C 
ATOM      8  CA  UNL     1      23.709  41.411  46.952  0.00  0.00    +0.000 C 
BRANCH   8   9
ATOM      9  N   UNL     1      23.433  40.848  45.724  0.00  0.00    +0.000 N 
ATOM     10  C   UNL     1      23.390  39.488  45.470  0.00  0.00    +0.000 C 
ATOM     11  O   UNL     1      23.675  38.606  46.276  0.00  0.00    +0.000 OA
ATOM     12  H   UNL     1      23.252  41.459  44.972  0.00  0.00    +0.000 HD
BRANCH  10  13
ATOM     13  C   UNL     1      23.016  39.136  44.048  0.00  0.00    +0.000 C 
BRANCH  13  14
ATOM     14  C   UNL     1      22.008  40.137  43.498  0.00  0.00    +0.000 C 
BRANCH  14  15
ATOM     15  C   UNL     1      20.607  39.768  43.916  0.00  0.00    +0.000 C 
ATOM     16  O   UNL     1      19.784  39.269  43.163  0.00  0.00    +0.000 OA
ATOM     17  O   UNL     1      20.354  40.014  45.217  0.00  0.00    +0.000 OA
ENDBRANCH  14  15
ENDBRANCH  13  14
ENDBRANCH  10  13
ENDBRANCH   8   9
BRANCH   8  18
ATOM     18  C   UNL     1      25.108  41.304  47.493  0.00  0.00    +0.000 C 
ATOM     19  O   UNL     1      26.070  40.869  46.885  0.00  0.00    +0.000 OA
ATOM     20  OXT UNL     1      25.191  41.763  48.764  0.00  0.00    +0.000 OA
ENDBRANCH   8  18
ENDBRANCH   6   7
BRANCH   1  21
ATOM     21  O   UNL     1      17.602  42.669  46.005  0.00  0.00    +0.000 OA
BRANCH  21  24
ATOM     22  I   UNL     1      16.451  39.355  46.874  0.00  0.00    +0.000 I 
ATOM     23  C   UNL     1      16.895  40.418  45.103  0.00  0.00    +0.000 A 
ATOM     24  C   UNL     1      17.267  41.770  45.013  0.00  0.00    +0.000 A 
ATOM     25  C   UNL     1      16.620  39.690  43.930  0.00  0.00    +0.000 A 
ATOM     26  C   UNL     1      17.192  42.392  43.754  0.00  0.00    +0.000 A 
ATOM     27  C   UNL     1      16.587  40.321  42.687  0.00  0.00    +0.000 A 
ATOM     28  C   UNL     1      16.835  41.684  42.604  0.00  0.00    +0.000 A 
ENDBRANCH  21  24
ENDBRANCH   1  21
TORSDOF 8
ENDMDL
MODEL 3
REMARK VINA RESULT:      -8.1      0.893      1.911
REMARK  Name = 323412
REMARK  8 active torsions:
REMARK  status: ('A' for Active; 'I' for Inactive)
REMARK    1  A    between atoms: C_3  and  O_5
REMARK    2  A    between atoms: O_5  and  C_8
REMARK    3  A    between atoms: C_14  and  C_15
REMARK    4  A    between atoms: CA_16  and  N_17
REMARK    5  A    between atoms: CA_16  and  C_18
REMARK    6  A    between atoms: C_19  and  C_23
REMARK    7  A    between atoms: C_23  and  C_24
REMARK    8  A    between atoms: C_24  and  C_25
REMARK                            x       y       z     vdW  Elec       q    Type
REMARK                         _______ _______ _______ _____ _____    ______ ____
ROOT
ATOM      1  C   UNL     1      21.848  41.330  46.903  0.00  0.00    +0.000 A 
ATOM      2  C   UNL     1      21.323  42.553  46.486  0.00  0.00    +0.000 A 
ATOM      3  C   UNL     1      21.871  40.251  46.013  0.00  0.00    +0.000 A 
ATOM      4  C   UNL     1      20.587  42.612  45.295  0.00  0.00    +0.000 A 
ATOM      5  C   UNL     1      21.176  40.325  44.806  0.00  0.00    +0.000 A 
ATOM      6  C   UNL     1      20.454  41.481  44.484  0.00  0.00    +0.000 A 
ENDROOT
BRANCH   6   7
ATOM      7  C   UNL     1      19.400  41.400  43.471  0.00  0.00    +0.000 C 
ATOM      8  CA  UNL     1      18.159  40.889  43.552  0.00  0.00    +0.000 C 
BRANCH   8   9
ATOM      9  N   UNL     1      17.652  40.173  44.616  0.00  0.00    +0.000 N 
ATOM     10  C   UNL     1      17.819  38.813  44.804  0.00  0.00    +0.000 C 
ATOM     11  O   UNL     1      18.365  38.048  44.012  0.00  0.00    +0.000 OA
ATOM     12  H   UNL     1      17.132  40.667  45.292  0.00  0.00    +0.000 HD
BRANCH  10  13
ATOM     13  C   UNL     1      17.203  38.284  46.079  0.00  0.00    +0.000 C 
BRANCH  13  14
ATOM     14  C   UNL     1      16.362  39.360  46.752  0.00  0.00    +0.000 C 
BRANCH  14  15
ATOM     15  C   UNL     1      17.200  40.575  47.065  0.00  0.00    +0.000 C 
ATOM     16  O   UNL     1      18.323  40.518  47.541  0.00  0.00    +0.000 OA
ATOM     17  O   UNL     1      16.599  41.736  46.738  0.00  0.00    +0.000 OA
ENDBRANCH  14  15
ENDBRANCH  13  14
ENDBRANCH  10  13
ENDBRANCH   8   9
BRANCH   8  18
ATOM     18  C   UNL     1      17.239  41.230  42.412  0.00  0.00    +0.000 C 
ATOM     19  O   UNL     1      16.170  40.694  42.181  0.00  0.00    +0.000 OA
ATOM     20  OXT UNL     1      17.736  42.232  41.649  0.00  0.00    +0.000 OA
ENDBRANCH   8  18
ENDBRANCH   6   7
BRANCH   1  21
ATOM     21  O   UNL     1      22.346  41.068  48.151  0.00  0.00    +0.000 OA
BRANCH  21  24
ATOM     22  I   UNL     1      25.409  40.572  46.299  0.00  0.00    +0.000 I 
ATOM     23  C   UNL     1      24.838  41.479  48.119  0.00  0.00    +0.000 A 
ATOM     24  C   UNL     1      23.528  41.616  48.608  0.00  0.00    +0.000 A 
ATOM     25  C   UNL     1      25.900  42.125  48.779  0.00  0.00    +0.000 A 
ATOM     26  C   UNL     1      23.305  42.533  49.651  0.00  0.00    +0.000 A 
ATOM     27  C   UNL     1      25.658  43.003  49.836  0.00  0.00    +0.000 A 
ATOM     28  C   UNL     1      24.354  43.236  50.247  0.00  0.00    +0.000 A 
ENDBRANCH  21  24
ENDBRANCH   1  21
TORSDOF 8
ENDMDL
MODEL 4
REMARK VINA RESULT:      -8.0      3.193      7.646
REMARK  Name = 323412
REMARK  8 active torsions:
REMARK  status: ('A' for Active; 'I' for Inactive)
REMARK    1  A    between atoms: C_3  and  O_5
REMARK    2  A    between atoms: O_5  and  C_8
REMARK    3  A    between atoms: C_14  and  C_15
REMARK    4  A    between atoms: CA_16  and  N_17
REMARK    5  A    between atoms: CA_16  and  C_18
REMARK    6  A    between atoms: C_19  and  C_23
REMARK    7  A    between atoms: C_23  and  C_24
REMARK    8  A    between atoms: C_24  and  C_25
REMARK                            x       y       z     vdW  Elec       q    Type
REMARK                         _______ _______ _______ _____ _____    ______ ____
ROOT
ATOM      1  C   UNL     1      20.153  41.287  45.688  0.00  0.00    +0.000 A 
ATOM      2  C   UNL     1      20.996  42.315  45.269  0.00  0.00    +0.000 A 
ATOM      3  C   UNL     1      20.170  40.887  47.028  0.00  0.00    +0.000 A 
ATOM      4  C   UNL     1      22.027  42.745  46.115  0.00  0.00    +0.000 A 
ATOM      5  C   UNL     1      21.169  41.349  47.885  0.00  0.00    +0.000 A 
ATOM      6  C   UNL     1      22.159  42.215  47.401  0.00  0.00    +0.000 A 
ENDROOT
BRANCH   6   7
ATOM      7  C   UNL     1      23.414  42.342  48.145  0.00  0.00    +0.000 C 
ATOM      8  CA  UNL     1      24.597  41.732  47.956  0.00  0.00    +0.000 C 
BRANCH   8   9
ATOM      9  N   UNL     1      24.840  40.705  47.069  0.00  0.00    +0.000 N 
ATOM     10  C   UNL     1      24.277  39.444  47.148  0.00  0.00    +0.000 C 
ATOM     11  O   UNL     1      23.556  39.044  48.059  0.00  0.00    +0.000 OA
ATOM     12  H   UNL     1      25.460  40.882  46.324  0.00  0.00    +0.000 HD
BRANCH  10  13
ATOM     13  C   UNL     1      24.672  38.517  46.020  0.00  0.00    +0.000 C 
BRANCH  13  14
ATOM     14  C   UNL     1      23.461  38.170  45.165  0.00  0.00    +0.000 C 
BRANCH  14  15
ATOM     15  C   UNL     1      23.046  39.350  44.322  0.00  0.00    +0.000 C 
ATOM     16  O   UNL     1      23.707  40.372  44.216  0.00  0.00    +0.000 OA
ATOM     17  O   UNL     1      21.884  39.157  43.668  0.00  0.00    +0.000 OA
ENDBRANCH  14  15
ENDBRANCH  13  14
ENDBRANCH  10  13
ENDBRANCH   8   9
BRANCH   8  18
ATOM     18  C   UNL     1      25.756  42.310  48.721  0.00  0.00    +0.000 C 
ATOM     19  O   UNL     1      25.683  43.204  49.547  0.00  0.00    +0.000 OA
ATOM     20  OXT UNL     1      26.924  41.710  48.394  0.00  0.00    +0.000 OA
ENDBRANCH   8  18
ENDBRANCH   6   7
BRANCH   1  21
ATOM     21  O   UNL     1      19.293  40.591  44.882  0.00  0.00    +0.000 OA
BRANCH  21  24
ATOM     22  I   UNL     1      16.741  42.533  46.547  0.00  0.00    +0.000 I 
ATOM     23  C   UNL     1      17.096  40.494  46.124  0.00  0.00    +0.000 A 
ATOM     24  C   UNL     1      18.159  39.972  45.369  0.00  0.00    +0.000 A 
ATOM     25  C   UNL     1      16.047  39.648  46.531  0.00  0.00    +0.000 A 
ATOM     26  C   UNL     1      18.052  38.648  44.907  0.00  0.00    +0.000 A 
ATOM     27  C   UNL     1      15.981  38.327  46.090  0.00  0.00    +0.000 A 
ATOM     28  C   UNL     1      16.966  37.837  45.244  0.00  0.00    +0.000 A 
ENDBRANCH  21  24
ENDBRANCH   1  21
TORSDOF 8
ENDMDL
MODEL 5
REMARK VINA RESULT:      -8.0      3.014      7.338
REMARK  Name = 323412
REMARK  8 active torsions:
REMARK  status: ('A' for Active; 'I' for Inactive)
REMARK    1  A    between atoms: C_3  and  O_5
REMARK    2  A    between atoms: O_5  and  C_8
REMARK    3  A    between atoms: C_14  and  C_15
REMARK    4  A    between atoms: CA_16  and  N_17
REMARK    5  A    between atoms: CA_16  and  C_18
REMARK    6  A    between atoms: C_19  and  C_23
REMARK    7  A    between atoms: C_23  and  C_24
REMARK    8  A    between atoms: C_24  and  C_25
REMARK                            x       y       z     vdW  Elec       q    Type
REMARK                         _______ _______ _______ _____ _____    ______ ____
ROOT
ATOM      1  C   UNL     1      18.624  42.402  46.714  0.00  0.00    +0.000 A 
ATOM      2  C   UNL     1      19.686  42.454  45.812  0.00  0.00    +0.000 A 
ATOM      3  C   UNL     1      18.852  42.689  48.063  0.00  0.00    +0.000 A 
ATOM      4  C   UNL     1      20.997  42.524  46.300  0.00  0.00    +0.000 A 
ATOM      5  C   UNL     1      20.157  42.804  48.544  0.00  0.00    +0.000 A 
ATOM      6  C   UNL     1      21.240  42.631  47.672  0.00  0.00    +0.000 A 
ENDROOT
BRANCH   6   7
ATOM      7  C   UNL     1      22.556  42.316  48.232  0.00  0.00    +0.000 C 
ATOM      8  CA  UNL     1      23.582  41.629  47.699  0.00  0.00    +0.000 C 
BRANCH   8   9
ATOM      9  N   UNL     1      23.548  40.922  46.516  0.00  0.00    +0.000 N 
ATOM     10  C   UNL     1      23.444  39.545  46.421  0.00  0.00    +0.000 C 
ATOM     11  O   UNL     1      23.454  38.765  47.371  0.00  0.00    +0.000 OA
ATOM     12  H   UNL     1      23.600  41.435  45.676  0.00  0.00    +0.000 HD
BRANCH  10  13
ATOM     13  C   UNL     1      23.378  39.026  45.003  0.00  0.00    +0.000 C 
BRANCH  13  14
ATOM     14  C   UNL     1      23.050  40.156  44.036  0.00  0.00    +0.000 C 
BRANCH  14  15
ATOM     15  C   UNL     1      21.598  40.108  43.630  0.00  0.00    +0.000 C 
ATOM     16  O   UNL     1      20.846  39.188  43.914  0.00  0.00    +0.000 OA
ATOM     17  O   UNL     1      21.199  41.197  42.946  0.00  0.00    +0.000 OA
ENDBRANCH  14  15
ENDBRANCH  13  14
ENDBRANCH  10  13
ENDBRANCH   8   9
BRANCH   8  18
ATOM     18  C   UNL     1      24.891  41.743  48.431  0.00  0.00    +0.000 C 
ATOM     19  O   UNL     1      25.949  41.263  48.066  0.00  0.00    +0.000 OA
ATOM     20  OXT UNL     1      24.768  42.464  49.570  0.00  0.00    +0.000 OA
ENDBRANCH   8  18
ENDBRANCH   6   7
BRANCH   1  21
ATOM     21  O   UNL     1      17.334  42.066  46.398  0.00  0.00    +0.000 OA
BRANCH  21  24
ATOM     22  I   UNL     1      17.467  41.063  42.930  0.00  0.00    +0.000 I 
ATOM     23  C   UNL     1      16.850  40.207  44.759  0.00  0.00    +0.000 A 
ATOM     24  C   UNL     1      16.971  40.785  46.033  0.00  0.00    +0.000 A 
ATOM     25  C   UNL     1      16.433  38.867  44.637  0.00  0.00    +0.000 A 
ATOM     26  C   UNL     1      16.826  39.949  47.155  0.00  0.00    +0.000 A 
ATOM     27  C   UNL     1      16.260  38.067  45.765  0.00  0.00    +0.000 A 
ATOM     28  C   UNL     1      16.495  38.598  47.025  0.00  0.00    +0.000 A 
ENDBRANCH  21  24
ENDBRANCH   1  21
TORSDOF 8
ENDMDL
MODEL 6
REMARK VINA RESULT:      -7.8      3.085      7.259
REMARK  Name = 323412
REMARK  8 active torsions:
REMARK  status: ('A' for Active; 'I' for Inactive)
REMARK    1  A    between atoms: C_3  and  O_5
REMARK    2  A    between atoms: O_5  and  C_8
REMARK    3  A    between atoms: C_14  and  C_15
REMARK    4  A    between atoms: CA_16  and  N_17
REMARK    5  A    between atoms: CA_16  and  C_18
REMARK    6  A    between atoms: C_19  and  C_23
REMARK    7  A    between atoms: C_23  and  C_24
REMARK    8  A    between atoms: C_24  and  C_25
REMARK                            x       y       z     vdW  Elec       q    Type
REMARK                         _______ _______ _______ _____ _____    ______ ____
ROOT
ATOM      1  C   UNL     1      19.818  39.783  43.563  0.00  0.00    +0.000 A 
ATOM      2  C   UNL     1      20.696  38.707  43.678  0.00  0.00    +0.000 A 
ATOM      3  C   UNL     1      20.327  41.084  43.495  0.00  0.00    +0.000 A 
ATOM      4  C   UNL     1      22.039  38.949  43.993  0.00  0.00    +0.000 A 
ATOM      5  C   UNL     1      21.675  41.322  43.765  0.00  0.00    +0.000 A 
ATOM      6  C   UNL     1      22.519  40.257  44.105  0.00  0.00    +0.000 A 
ENDROOT
BRANCH   6   7
ATOM      7  C   UNL     1      23.777  40.543  44.799  0.00  0.00    +0.000 C 
ATOM      8  CA  UNL     1      24.000  41.206  45.947  0.00  0.00    +0.000 C 
BRANCH   8   9
ATOM      9  N   UNL     1      23.058  41.911  46.665  0.00  0.00    +0.000 N 
ATOM     10  C   UNL     1      22.074  41.339  47.451  0.00  0.00    +0.000 C 
ATOM     11  O   UNL     1      21.853  40.135  47.549  0.00  0.00    +0.000 OA
ATOM     12  H   UNL     1      23.088  42.895  46.614  0.00  0.00    +0.000 HD
BRANCH  10  13
ATOM     13  C   UNL     1      21.199  42.340  48.172  0.00  0.00    +0.000 C 
BRANCH  13  14
ATOM     14  C   UNL     1      19.848  42.464  47.480  0.00  0.00    +0.000 C 
BRANCH  14  15
ATOM     15  C   UNL     1      18.875  43.229  48.340  0.00  0.00    +0.000 C 
ATOM     16  O   UNL     1      18.871  43.186  49.561  0.00  0.00    +0.000 OA
ATOM     17  O   UNL     1      18.021  43.994  47.631  0.00  0.00    +0.000 OA
ENDBRANCH  14  15
ENDBRANCH  13  14
ENDBRANCH  10  13
ENDBRANCH   8   9
BRANCH   8  18
ATOM     18  C   UNL     1      25.384  41.064  46.521  0.00  0.00    +0.000 C 
ATOM     19  O   UNL     1      25.913  41.845  47.291  0.00  0.00    +0.000 OA
ATOM     20  OXT UNL     1      25.995  39.938  46.084  0.00  0.00    +0.000 OA
ENDBRANCH   8  18
ENDBRANCH   6   7
BRANCH   1  21
ATOM     21  O   UNL     1      18.452  39.690  43.529  0.00  0.00    +0.000 OA
BRANCH  21  24
ATOM     22  I   UNL     1      17.045  42.853  44.564  0.00  0.00    +0.000 I 
ATOM     23  C   UNL     1      17.113  40.878  45.311  0.00  0.00    +0.000 A 
ATOM     24  C   UNL     1      17.676  39.763  44.668  0.00  0.00    +0.000 A 
ATOM     25  C   UNL     1      16.370  40.702  46.493  0.00  0.00    +0.000 A 
ATOM     26  C   UNL     1      17.334  38.485  45.146  0.00  0.00    +0.000 A 
ATOM     27  C   UNL     1      16.074  39.425  46.968  0.00  0.00    +0.000 A 
ATOM     28  C   UNL     1      16.525  38.313  46.271  0.00  0.00    +0.000 A 
ENDBRANCH  21  24
ENDBRANCH   1  21
TORSDOF 8
ENDMDL
MODEL 7
REMARK VINA RESULT:      -7.5      1.217      1.767
REMARK  Name = 323412
REMARK  8 active torsions:
REMARK  status: ('A' for Active; 'I' for Inactive)
REMARK    1  A    between atoms: C_3  and  O_5
REMARK    2  A    between atoms: O_5  and  C_8
REMARK    3  A    between atoms: C_14  and  C_15
REMARK    4  A    between atoms: CA_16  and  N_17
REMARK    5  A    between atoms: CA_16  and  C_18
REMARK    6  A    between atoms: C_19  and  C_23
REMARK    7  A    between atoms: C_23  and  C_24
REMARK    8  A    between atoms: C_24  and  C_25
REMARK                            x       y       z     vdW  Elec       q    Type
REMARK                         _______ _______ _______ _____ _____    ______ ____
ROOT
ATOM      1  C   UNL     1      21.910  41.750  46.583  0.00  0.00    +0.000 A 
ATOM      2  C   UNL     1      20.987  42.786  46.445  0.00  0.00    +0.000 A 
ATOM      3  C   UNL     1      22.182  40.920  45.491  0.00  0.00    +0.000 A 
ATOM      4  C   UNL     1      20.154  42.816  45.319  0.00  0.00    +0.000 A 
ATOM      5  C   UNL     1      21.382  40.980  44.350  0.00  0.00    +0.000 A 
ATOM      6  C   UNL     1      20.303  41.873  44.299  0.00  0.00    +0.000 A 
ENDROOT
BRANCH   6   7
ATOM      7  C   UNL     1      19.232  41.635  43.328  0.00  0.00    +0.000 C 
ATOM      8  CA  UNL     1      18.131  40.870  43.425  0.00  0.00    +0.000 C 
BRANCH   8   9
ATOM      9  N   UNL     1      17.846  39.997  44.454  0.00  0.00    +0.000 N 
ATOM     10  C   UNL     1      17.115  40.319  45.583  0.00  0.00    +0.000 C 
ATOM     11  O   UNL     1      16.696  41.440  45.862  0.00  0.00    +0.000 OA
ATOM     12  H   UNL     1      18.188  39.075  44.379  0.00  0.00    +0.000 HD
BRANCH  10  13
ATOM     13  C   UNL     1      16.905  39.163  46.535  0.00  0.00    +0.000 C 
BRANCH  13  14
ATOM     14  C   UNL     1      16.136  38.041  45.850  0.00  0.00    +0.000 C 
BRANCH  14  15
ATOM     15  C   UNL     1      17.056  36.896  45.505  0.00  0.00    +0.000 C 
ATOM     16  O   UNL     1      17.064  35.830  46.102  0.00  0.00    +0.000 OA
ATOM     17  O   UNL     1      17.853  37.151  44.448  0.00  0.00    +0.000 OA
ENDBRANCH  14  15
ENDBRANCH  13  14
ENDBRANCH  10  13
ENDBRANCH   8   9
BRANCH   8  18
ATOM     18  C   UNL     1      17.097  41.081  42.354  0.00  0.00    +0.000 C 
ATOM     19  O   UNL     1      17.193  41.860  41.422  0.00  0.00    +0.000 OA
ATOM     20  OXT UNL     1      16.017  40.284  42.534  0.00  0.00    +0.000 OA
ENDBRANCH   8  18
ENDBRANCH   6   7
BRANCH   1  21
ATOM     21  O   UNL     1      22.588  41.443  47.733  0.00  0.00    +0.000 OA
BRANCH  21  24
ATOM     22  I   UNL     1      24.151  42.967  50.613  0.00  0.00    +0.000 I 
ATOM     23  C   UNL     1      24.782  42.129  48.780  0.00  0.00    +0.000 A 
ATOM     24  C   UNL     1      23.964  41.509  47.821  0.00  0.00    +0.000 A 
ATOM     25  C   UNL     1      26.182  42.080  48.640  0.00  0.00    +0.000 A 
ATOM     26  C   UNL     1      24.584  40.716  46.838  0.00  0.00    +0.000 A 
ATOM     27  C   UNL     1      26.775  41.317  47.635  0.00  0.00    +0.000 A 
ATOM     28  C   UNL     1      25.974  40.602  46.756  0.00  0.00    +0.000 A 
ENDBRANCH  21  24
ENDBRANCH   1  21
TORSDOF 8
ENDMDL
MODEL 8
REMARK VINA RESULT:      -7.0      1.691      2.509
REMARK  Name = 323412
REMARK  8 active torsions:
REMARK  status: ('A' for Active; 'I' for Inactive)
REMARK    1  A    between atoms: C_3  and  O_5
REMARK    2  A    between atoms: O_5  and  C_8
REMARK    3  A    between atoms: C_14  and  C_15
REMARK    4  A    between atoms: CA_16  and  N_17
REMARK    5  A    between atoms: CA_16  and  C_18
REMARK    6  A    between atoms: C_19  and  C_23
REMARK    7  A    between atoms: C_23  and  C_24
REMARK    8  A    between atoms: C_24  and  C_25
REMARK                            x       y       z     vdW  Elec       q    Type
REMARK                         _______ _______ _______ _____ _____    ______ ____
ROOT
ATOM      1  C   UNL     1      20.964  41.957  47.206  0.00  0.00    +0.000 A 
ATOM      2  C   UNL     1      19.617  41.624  47.344  0.00  0.00    +0.000 A 
ATOM      3  C   UNL     1      21.393  42.632  46.058  0.00  0.00    +0.000 A 
ATOM      4  C   UNL     1      18.770  41.722  46.233  0.00  0.00    +0.000 A 
ATOM      5  C   UNL     1      20.535  42.770  44.967  0.00  0.00    +0.000 A 
ATOM      6  C   UNL     1      19.243  42.232  45.020  0.00  0.00    +0.000 A 
ENDROOT
BRANCH   6   7
ATOM      7  C   UNL     1      18.524  41.989  43.768  0.00  0.00    +0.000 C 
ATOM      8  CA  UNL     1      17.637  41.030  43.451  0.00  0.00    +0.000 C 
BRANCH   8   9
ATOM      9  N   UNL     1      17.317  39.940  44.233  0.00  0.00    +0.000 N 
ATOM     10  C   UNL     1      18.116  38.822  44.395  0.00  0.00    +0.000 C 
ATOM     11  O   UNL     1      19.172  38.612  43.802  0.00  0.00    +0.000 OA
ATOM     12  H   UNL     1      16.456  39.959  44.713  0.00  0.00    +0.000 HD
BRANCH  10  13
ATOM     13  C   UNL     1      17.553  37.791  45.347  0.00  0.00    +0.000 C 
BRANCH  13  14
ATOM     14  C   UNL     1      16.141  38.172  45.770  0.00  0.00    +0.000 C 
BRANCH  14  15
ATOM     15  C   UNL     1      16.166  39.010  47.024  0.00  0.00    +0.000 C 
ATOM     16  O   UNL     1      16.335  38.550  48.143  0.00  0.00    +0.000 OA
ATOM     17  O   UNL     1      16.014  40.328  46.788  0.00  0.00    +0.000 OA
ENDBRANCH  14  15
ENDBRANCH  13  14
ENDBRANCH  10  13
ENDBRANCH   8   9
BRANCH   8  18
ATOM     18  C   UNL     1      16.875  41.246  42.173  0.00  0.00    +0.000 C 
ATOM     19  O   UNL     1      15.777  40.781  41.917  0.00  0.00    +0.000 OA
ATOM     20  OXT UNL     1      17.552  42.041  41.312  0.00  0.00    +0.000 OA
ENDBRANCH   8  18
ENDBRANCH   6   7
BRANCH   1  21
ATOM     21  O   UNL     1      21.949  41.660  48.110  0.00  0.00    +0.000 OA
BRANCH  21  24
ATOM     22  I   UNL     1      24.683  42.904  50.120  0.00  0.00    +0.000 I 
ATOM     23  C   UNL     1      24.459  41.876  48.288  0.00  0.00    +0.000 A 
ATOM     24  C   UNL     1      23.254  41.418  47.731  0.00  0.00    +0.000 A 
ATOM     25  C   UNL     1      25.685  41.508  47.700  0.00  0.00    +0.000 A 
ATOM     26  C   UNL     1      23.324  40.470  46.694  0.00  0.00    +0.000 A 
ATOM     27  C   UNL     1      25.728  40.594  46.649  0.00  0.00    +0.000 A 
ATOM     28  C   UNL     1      24.547  40.044  46.171  0.00  0.00    +0.000 A 
ENDBRANCH  21  24
ENDBRANCH   1  21
TORSDOF 8
ENDMDL
MODEL 9
REMARK VINA RESULT:      -7.0      3.273      7.841
REMARK  Name = 323412
REMARK  8 active torsions:
REMARK  status: ('A' for Active; 'I' for Inactive)
REMARK    1  A    between atoms: C_3  and  O_5
REMARK    2  A    between atoms: O_5  and  C_8
REMARK    3  A    between atoms: C_14  and  C_15
REMARK    4  A    between atoms: CA_16  and  N_17
REMARK    5  A    between atoms: CA_16  and  C_18
REMARK    6  A    between atoms: C_19  and  C_23
REMARK    7  A    between atoms: C_23  and  C_24
REMARK    8  A    between atoms: C_24  and  C_25
REMARK                            x       y       z     vdW  Elec       q    Type
REMARK                         _______ _______ _______ _____ _____    ______ ____
ROOT
ATOM      1  C   UNL     1      20.429  41.036  45.211  0.00  0.00    +0.000 A 
ATOM      2  C   UNL     1      21.118  42.242  45.094  0.00  0.00    +0.000 A 
ATOM      3  C   UNL     1      20.160  40.518  46.482  0.00  0.00    +0.000 A 
ATOM      4  C   UNL     1      21.762  42.777  46.218  0.00  0.00    +0.000 A 
ATOM      5  C   UNL     1      20.764  41.077  47.608  0.00  0.00    +0.000 A 
ATOM      6  C   UNL     1      21.643  42.159  47.466  0.00  0.00    +0.000 A 
ENDROOT
BRANCH   6   7
ATOM      7  C   UNL     1      22.589  42.450  48.545  0.00  0.00    +0.000 C 
ATOM      8  CA  UNL     1      23.886  42.121  48.671  0.00  0.00    +0.000 C 
BRANCH   8   9
ATOM      9  N   UNL     1      24.586  41.276  47.836  0.00  0.00    +0.000 N 
ATOM     10  C   UNL     1      24.333  39.924  47.686  0.00  0.00    +0.000 C 
ATOM     11  O   UNL     1      23.512  39.279  48.335  0.00  0.00    +0.000 OA
ATOM     12  H   UNL     1      25.321  41.664  47.306  0.00  0.00    +0.000 HD
BRANCH  10  13
ATOM     13  C   UNL     1      25.216  39.238  46.668  0.00  0.00    +0.000 C 
BRANCH  13  14
ATOM     14  C   UNL     1      24.379  38.379  45.729  0.00  0.00    +0.000 C 
BRANCH  14  15
ATOM     15  C   UNL     1      23.611  39.241  44.759  0.00  0.00    +0.000 C 
ATOM     16  O   UNL     1      22.682  38.833  44.079  0.00  0.00    +0.000 OA
ATOM     17  O   UNL     1      24.029  40.522  44.735  0.00  0.00    +0.000 OA
ENDBRANCH  14  15
ENDBRANCH  13  14
ENDBRANCH  10  13
ENDBRANCH   8   9
BRANCH   8  18
ATOM     18  C   UNL     1      24.633  42.828  49.769  0.00  0.00    +0.000 C 
ATOM     19  O   UNL     1      24.123  43.402  50.715  0.00  0.00    +0.000 OA
ATOM     20  OXT UNL     1      25.973  42.750  49.596  0.00  0.00    +0.000 OA
ENDBRANCH   8  18
ENDBRANCH   6   7
BRANCH   1  21
ATOM     21  O   UNL     1      19.990  40.271  44.164  0.00  0.00    +0.000 OA
BRANCH  21  24
ATOM     22  I   UNL     1      17.235  38.170  45.189  0.00  0.00    +0.000 I 
ATOM     23  C   UNL     1      17.566  39.690  43.760  0.00  0.00    +0.000 A 
ATOM     24  C   UNL     1      18.743  40.438  43.596  0.00  0.00    +0.000 A 
ATOM     25  C   UNL     1      16.407  40.045  43.043  0.00  0.00    +0.000 A 
ATOM     26  C   UNL     1      18.674  41.621  42.838  0.00  0.00    +0.000 A 
ATOM     27  C   UNL     1      16.373  41.204  42.269  0.00  0.00    +0.000 A 
ATOM     28  C   UNL     1      17.497  42.014  42.198  0.00  0.00    +0.000 A 
ENDBRANCH  21  24
ENDBRANCH   1  21
TORSDOF 8
ENDMDL
