MODEL 1
REMARK VINA RESULT:      -8.7      0.000      0.000
REMARK  Name = 323399
REMARK  8 active torsions:
REMARK  status: ('A' for Active; 'I' for Inactive)
REMARK    1  A    between atoms: C_3  and  O_5
REMARK    2  A    between atoms: O_5  and  C_8
REMARK    3  A    between atoms: C_14  and  C_15
REMARK    4  A    between atoms: CA_16  and  N_17
REMARK    5  A    between atoms: CA_16  and  C_18
REMARK    6  A    between atoms: C_19  and  C_23
REMARK    7  A    between atoms: C_23  and  C_24
REMARK    8  A    between atoms: C_24  and  C_25
REMARK                            x       y       z     vdW  Elec       q    Type
REMARK                         _______ _______ _______ _____ _____    ______ ____
ROOT
ATOM      1  C   UNL     1      20.319  42.037  43.952  0.00  0.00    +0.000 C 
ATOM      2  CA  UNL     1      19.027  42.347  43.740  0.00  0.00    +0.000 C 
ENDROOT
BRANCH   1   8
ATOM      3  C   UNL     1      22.479  40.554  47.290  0.00  0.00    +0.000 A 
ATOM      4  C   UNL     1      22.511  39.839  46.094  0.00  0.00    +0.000 A 
ATOM      5  C   UNL     1      21.581  41.610  47.450  0.00  0.00    +0.000 A 
ATOM      6  C   UNL     1      21.741  40.271  45.006  0.00  0.00    +0.000 A 
ATOM      7  C   UNL     1      20.872  42.082  46.351  0.00  0.00    +0.000 A 
ATOM      8  C   UNL     1      20.952  41.423  45.121  0.00  0.00    +0.000 A 
BRANCH   3   9
ATOM      9  O   UNL     1      23.397  40.228  48.271  0.00  0.00    +0.000 OA
BRANCH   9  12
ATOM     10 BR   UNL     1      25.888  40.641  46.477  0.00  0.00    +0.000 Br
ATOM     11  C   UNL     1      25.396  41.546  48.071  0.00  0.00    +0.000 A 
ATOM     12  C   UNL     1      24.203  41.255  48.741  0.00  0.00    +0.000 A 
ATOM     13  C   UNL     1      26.267  42.520  48.574  0.00  0.00    +0.000 A 
ATOM     14  C   UNL     1      23.860  42.016  49.873  0.00  0.00    +0.000 A 
ATOM     15  C   UNL     1      25.951  43.209  49.746  0.00  0.00    +0.000 A 
ATOM     16  C   UNL     1      24.742  42.964  50.390  0.00  0.00    +0.000 A 
ENDBRANCH   9  12
ENDBRANCH   3   9
ENDBRANCH   1   8
BRANCH   2  17
ATOM     17  N   UNL     1      17.973  42.172  44.626  0.00  0.00    +0.000 N 
ATOM     18  C   UNL     1      17.754  42.934  45.759  0.00  0.00    +0.000 C 
ATOM     19  O   UNL     1      18.344  43.978  46.013  0.00  0.00    +0.000 OA
ATOM     20  H   UNL     1      17.334  41.450  44.433  0.00  0.00    +0.000 HD
BRANCH  18  21
ATOM     21  C   UNL     1      16.623  42.408  46.628  0.00  0.00    +0.000 C 
BRANCH  21  22
ATOM     22  C   UNL     1      16.279  40.974  46.221  0.00  0.00    +0.000 C 
BRANCH  22  23
ATOM     23  C   UNL     1      16.892  39.873  47.104  0.00  0.00    +0.000 C 
ATOM     24  C   UNL     1      18.299  39.514  46.590  0.00  0.00    +0.000 C 
ATOM     25  C   UNL     1      16.048  38.594  47.198  0.00  0.00    +0.000 C 
ATOM     26  C   UNL     1      18.263  38.785  45.246  0.00  0.00    +0.000 C 
ATOM     27  C   UNL     1      15.991  37.816  45.889  0.00  0.00    +0.000 C 
ATOM     28  C   UNL     1      17.371  37.550  45.288  0.00  0.00    +0.000 C 
ENDBRANCH  22  23
ENDBRANCH  21  22
ENDBRANCH  18  21
ENDBRANCH   2  17
BRANCH   2  29
ATOM     29  C   UNL     1      18.712  42.888  42.373  0.00  0.00    +0.000 C 
ATOM     30  O   UNL     1      19.221  43.873  41.865  0.00  0.00    +0.000 OA
ATOM     31  OXT UNL     1      17.770  42.142  41.749  0.00  0.00    +0.000 OA
ENDBRANCH   2  29
TORSDOF 8
ENDMDL
MODEL 2
REMARK VINA RESULT:      -7.4      1.331      2.437
REMARK  Name = 323399
REMARK  8 active torsions:
REMARK  status: ('A' for Active; 'I' for Inactive)
REMARK    1  A    between atoms: C_3  and  O_5
REMARK    2  A    between atoms: O_5  and  C_8
REMARK    3  A    between atoms: C_14  and  C_15
REMARK    4  A    between atoms: CA_16  and  N_17
REMARK    5  A    between atoms: CA_16  and  C_18
REMARK    6  A    between atoms: C_19  and  C_23
REMARK    7  A    between atoms: C_23  and  C_24
REMARK    8  A    between atoms: C_24  and  C_25
REMARK                            x       y       z     vdW  Elec       q    Type
REMARK                         _______ _______ _______ _____ _____    ______ ____
ROOT
ATOM      1  C   UNL     1      18.558  43.323  46.272  0.00  0.00    +0.000 C 
ATOM      2  CA  UNL     1      17.496  43.149  45.465  0.00  0.00    +0.000 C 
ENDROOT
BRANCH   1   8
ATOM      3  C   UNL     1      22.041  41.065  47.152  0.00  0.00    +0.000 A 
ATOM      4  C   UNL     1      22.170  42.248  46.426  0.00  0.00    +0.000 A 
ATOM      5  C   UNL     1      20.777  40.525  47.391  0.00  0.00    +0.000 A 
ATOM      6  C   UNL     1      21.023  42.965  46.058  0.00  0.00    +0.000 A 
ATOM      7  C   UNL     1      19.642  41.270  47.091  0.00  0.00    +0.000 A 
ATOM      8  C   UNL     1      19.756  42.497  46.430  0.00  0.00    +0.000 A 
BRANCH   3   9
ATOM      9  O   UNL     1      23.185  40.491  47.674  0.00  0.00    +0.000 OA
BRANCH   9  12
ATOM     10 BR   UNL     1      25.912  40.622  46.211  0.00  0.00    +0.000 Br
ATOM     11  C   UNL     1      25.370  41.482  47.813  0.00  0.00    +0.000 A 
ATOM     12  C   UNL     1      24.074  41.341  48.319  0.00  0.00    +0.000 A 
ATOM     13  C   UNL     1      26.310  42.266  48.493  0.00  0.00    +0.000 A 
ATOM     14  C   UNL     1      23.713  42.067  49.468  0.00  0.00    +0.000 A 
ATOM     15  C   UNL     1      25.960  42.915  49.678  0.00  0.00    +0.000 A 
ATOM     16  C   UNL     1      24.657  42.823  50.161  0.00  0.00    +0.000 A 
ENDBRANCH   9  12
ENDBRANCH   3   9
ENDBRANCH   1   8
BRANCH   2  17
ATOM     17  N   UNL     1      17.281  42.095  44.590  0.00  0.00    +0.000 N 
ATOM     18  C   UNL     1      17.789  42.012  43.307  0.00  0.00    +0.000 C 
ATOM     19  O   UNL     1      18.649  42.760  42.856  0.00  0.00    +0.000 OA
ATOM     20  H   UNL     1      16.723  41.348  44.907  0.00  0.00    +0.000 HD
BRANCH  18  21
ATOM     21  C   UNL     1      17.251  40.827  42.521  0.00  0.00    +0.000 C 
BRANCH  21  22
ATOM     22  C   UNL     1      16.693  39.777  43.484  0.00  0.00    +0.000 C 
BRANCH  22  23
ATOM     23  C   UNL     1      17.557  39.495  44.726  0.00  0.00    +0.000 C 
ATOM     24  C   UNL     1      18.515  38.323  44.441  0.00  0.00    +0.000 C 
ATOM     25  C   UNL     1      16.755  39.192  45.999  0.00  0.00    +0.000 C 
ATOM     26  C   UNL     1      17.784  36.985  44.319  0.00  0.00    +0.000 C 
ATOM     27  C   UNL     1      16.017  37.859  45.941  0.00  0.00    +0.000 C 
ATOM     28  C   UNL     1      16.920  36.692  45.539  0.00  0.00    +0.000 C 
ENDBRANCH  22  23
ENDBRANCH  21  22
ENDBRANCH  18  21
ENDBRANCH   2  17
BRANCH   2  29
ATOM     29  C   UNL     1      16.478  44.256  45.494  0.00  0.00    +0.000 C 
ATOM     30  O   UNL     1      15.964  44.772  44.515  0.00  0.00    +0.000 OA
ATOM     31  OXT UNL     1      16.189  44.632  46.762  0.00  0.00    +0.000 OA
ENDBRANCH   2  29
TORSDOF 8
ENDMDL
MODEL 3
REMARK VINA RESULT:      -7.2      2.618      7.637
REMARK  Name = 323399
REMARK  8 active torsions:
REMARK  status: ('A' for Active; 'I' for Inactive)
REMARK    1  A    between atoms: C_3  and  O_5
REMARK    2  A    between atoms: O_5  and  C_8
REMARK    3  A    between atoms: C_14  and  C_15
REMARK    4  A    between atoms: CA_16  and  N_17
REMARK    5  A    between atoms: CA_16  and  C_18
REMARK    6  A    between atoms: C_19  and  C_23
REMARK    7  A    between atoms: C_23  and  C_24
REMARK    8  A    between atoms: C_24  and  C_25
REMARK                            x       y       z     vdW  Elec       q    Type
REMARK                         _______ _______ _______ _____ _____    ______ ____
ROOT
ATOM      1  C   UNL     1      22.911  40.301  43.837  0.00  0.00    +0.000 C 
ATOM      2  CA  UNL     1      23.589  40.807  44.882  0.00  0.00    +0.000 C 
ENDROOT
BRANCH   1   8
ATOM      3  C   UNL     1      18.690  40.486  43.442  0.00  0.00    +0.000 A 
ATOM      4  C   UNL     1      19.309  39.237  43.482  0.00  0.00    +0.000 A 
ATOM      5  C   UNL     1      19.457  41.644  43.311  0.00  0.00    +0.000 A 
ATOM      6  C   UNL     1      20.707  39.158  43.532  0.00  0.00    +0.000 A 
ATOM      7  C   UNL     1      20.840  41.571  43.434  0.00  0.00    +0.000 A 
ATOM      8  C   UNL     1      21.475  40.330  43.553  0.00  0.00    +0.000 A 
BRANCH   3   9
ATOM      9  O   UNL     1      17.317  40.539  43.599  0.00  0.00    +0.000 OA
BRANCH   9  12
ATOM     10 BR   UNL     1      16.905  42.749  45.730  0.00  0.00    +0.000 Br
ATOM     11  C   UNL     1      16.596  40.882  45.865  0.00  0.00    +0.000 A 
ATOM     12  C   UNL     1      16.802  40.023  44.780  0.00  0.00    +0.000 A 
ATOM     13  C   UNL     1      16.157  40.372  47.092  0.00  0.00    +0.000 A 
ATOM     14  C   UNL     1      16.479  38.662  44.923  0.00  0.00    +0.000 A 
ATOM     15  C   UNL     1      15.919  39.005  47.243  0.00  0.00    +0.000 A 
ATOM     16  C   UNL     1      16.070  38.151  46.154  0.00  0.00    +0.000 A 
ENDBRANCH   9  12
ENDBRANCH   3   9
ENDBRANCH   1   8
BRANCH   2  17
ATOM     17  N   UNL     1      23.055  41.470  45.978  0.00  0.00    +0.000 N 
ATOM     18  C   UNL     1      22.142  40.930  46.864  0.00  0.00    +0.000 C 
ATOM     19  O   UNL     1      21.844  39.741  46.909  0.00  0.00    +0.000 OA
ATOM     20  H   UNL     1      23.348  42.396  46.135  0.00  0.00    +0.000 HD
BRANCH  18  21
ATOM     21  C   UNL     1      21.605  41.939  47.867  0.00  0.00    +0.000 C 
BRANCH  21  22
ATOM     22  C   UNL     1      22.768  42.595  48.615  0.00  0.00    +0.000 C 
BRANCH  22  23
ATOM     23  C   UNL     1      23.592  41.652  49.509  0.00  0.00    +0.000 C 
ATOM     24  C   UNL     1      24.122  42.422  50.733  0.00  0.00    +0.000 C 
ATOM     25  C   UNL     1      24.768  40.971  48.794  0.00  0.00    +0.000 C 
ATOM     26  C   UNL     1      25.199  43.443  50.362  0.00  0.00    +0.000 C 
ATOM     27  C   UNL     1      25.882  41.939  48.415  0.00  0.00    +0.000 C 
ATOM     28  C   UNL     1      26.346  42.808  49.585  0.00  0.00    +0.000 C 
ENDBRANCH  22  23
ENDBRANCH  21  22
ENDBRANCH  18  21
ENDBRANCH   2  17
BRANCH   2  29
ATOM     29  C   UNL     1      25.085  40.674  44.804  0.00  0.00    +0.000 C 
ATOM     30  O   UNL     1      25.799  41.188  43.959  0.00  0.00    +0.000 OA
ATOM     31  OXT UNL     1      25.567  39.895  45.800  0.00  0.00    +0.000 OA
ENDBRANCH   2  29
TORSDOF 8
ENDMDL
MODEL 4
REMARK VINA RESULT:      -7.2      3.090      7.500
REMARK  Name = 323399
REMARK  8 active torsions:
REMARK  status: ('A' for Active; 'I' for Inactive)
REMARK    1  A    between atoms: C_3  and  O_5
REMARK    2  A    between atoms: O_5  and  C_8
REMARK    3  A    between atoms: C_14  and  C_15
REMARK    4  A    between atoms: CA_16  and  N_17
REMARK    5  A    between atoms: CA_16  and  C_18
REMARK    6  A    between atoms: C_19  and  C_23
REMARK    7  A    between atoms: C_23  and  C_24
REMARK    8  A    between atoms: C_24  and  C_25
REMARK                            x       y       z     vdW  Elec       q    Type
REMARK                         _______ _______ _______ _____ _____    ______ ____
ROOT
ATOM      1  C   UNL     1      22.432  42.479  48.798  0.00  0.00    +0.000 C 
ATOM      2  CA  UNL     1      23.598  41.809  48.840  0.00  0.00    +0.000 C 
ENDROOT
BRANCH   1   8
ATOM      3  C   UNL     1      18.694  41.574  47.005  0.00  0.00    +0.000 A 
ATOM      4  C   UNL     1      19.684  40.592  47.032  0.00  0.00    +0.000 A 
ATOM      5  C   UNL     1      19.002  42.888  47.358  0.00  0.00    +0.000 A 
ATOM      6  C   UNL     1      20.950  40.898  47.548  0.00  0.00    +0.000 A 
ATOM      7  C   UNL     1      20.233  43.175  47.937  0.00  0.00    +0.000 A 
ATOM      8  C   UNL     1      21.213  42.183  48.044  0.00  0.00    +0.000 A 
BRANCH   3   9
ATOM      9  O   UNL     1      17.405  41.191  46.683  0.00  0.00    +0.000 OA
BRANCH   9  12
ATOM     10 BR   UNL     1      16.881  38.254  45.853  0.00  0.00    +0.000 Br
ATOM     11  C   UNL     1      16.879  39.820  44.782  0.00  0.00    +0.000 A 
ATOM     12  C   UNL     1      17.101  41.086  45.333  0.00  0.00    +0.000 A 
ATOM     13  C   UNL     1      16.654  39.680  43.407  0.00  0.00    +0.000 A 
ATOM     14  C   UNL     1      17.009  42.214  44.498  0.00  0.00    +0.000 A 
ATOM     15  C   UNL     1      16.647  40.802  42.577  0.00  0.00    +0.000 A 
ATOM     16  C   UNL     1      16.815  42.071  43.124  0.00  0.00    +0.000 A 
ENDBRANCH   9  12
ENDBRANCH   3   9
ENDBRANCH   1   8
BRANCH   2  17
ATOM     17  N   UNL     1      23.924  40.661  48.132  0.00  0.00    +0.000 N 
ATOM     18  C   UNL     1      24.707  40.628  46.992  0.00  0.00    +0.000 C 
ATOM     19  O   UNL     1      25.369  41.575  46.583  0.00  0.00    +0.000 OA
ATOM     20  H   UNL     1      23.571  39.806  48.466  0.00  0.00    +0.000 HD
BRANCH  18  21
ATOM     21  C   UNL     1      24.757  39.258  46.335  0.00  0.00    +0.000 C 
BRANCH  21  22
ATOM     22  C   UNL     1      23.393  38.924  45.728  0.00  0.00    +0.000 C 
BRANCH  22  23
ATOM     23  C   UNL     1      23.256  39.206  44.221  0.00  0.00    +0.000 C 
ATOM     24  C   UNL     1      23.366  40.720  43.960  0.00  0.00    +0.000 C 
ATOM     25  C   UNL     1      21.956  38.680  43.595  0.00  0.00    +0.000 C 
ATOM     26  C   UNL     1      22.156  41.494  44.485  0.00  0.00    +0.000 C 
ATOM     27  C   UNL     1      20.716  39.428  44.069  0.00  0.00    +0.000 C 
ATOM     28  C   UNL     1      20.844  40.946  43.937  0.00  0.00    +0.000 C 
ENDBRANCH  22  23
ENDBRANCH  21  22
ENDBRANCH  18  21
ENDBRANCH   2  17
BRANCH   2  29
ATOM     29  C   UNL     1      24.616  42.351  49.805  0.00  0.00    +0.000 C 
ATOM     30  O   UNL     1      25.766  42.649  49.530  0.00  0.00    +0.000 OA
ATOM     31  OXT UNL     1      24.102  42.473  51.053  0.00  0.00    +0.000 OA
ENDBRANCH   2  29
TORSDOF 8
ENDMDL
MODEL 5
REMARK VINA RESULT:      -7.0      1.266      1.921
REMARK  Name = 323399
REMARK  8 active torsions:
REMARK  status: ('A' for Active; 'I' for Inactive)
REMARK    1  A    between atoms: C_3  and  O_5
REMARK    2  A    between atoms: O_5  and  C_8
REMARK    3  A    between atoms: C_14  and  C_15
REMARK    4  A    between atoms: CA_16  and  N_17
REMARK    5  A    between atoms: CA_16  and  C_18
REMARK    6  A    between atoms: C_19  and  C_23
REMARK    7  A    between atoms: C_23  and  C_24
REMARK    8  A    between atoms: C_24  and  C_25
REMARK                            x       y       z     vdW  Elec       q    Type
REMARK                         _______ _______ _______ _____ _____    ______ ____
ROOT
ATOM      1  C   UNL     1      19.743  42.044  43.389  0.00  0.00    +0.000 C 
ATOM      2  CA  UNL     1      18.401  41.961  43.439  0.00  0.00    +0.000 C 
ENDROOT
BRANCH   1   8
ATOM      3  C   UNL     1      22.269  41.525  46.759  0.00  0.00    +0.000 A 
ATOM      4  C   UNL     1      21.787  42.800  46.467  0.00  0.00    +0.000 A 
ATOM      5  C   UNL     1      22.105  40.488  45.840  0.00  0.00    +0.000 A 
ATOM      6  C   UNL     1      21.018  43.004  45.314  0.00  0.00    +0.000 A 
ATOM      7  C   UNL     1      21.282  40.671  44.735  0.00  0.00    +0.000 A 
ATOM      8  C   UNL     1      20.726  41.926  44.467  0.00  0.00    +0.000 A 
BRANCH   3   9
ATOM      9  O   UNL     1      22.846  41.313  47.997  0.00  0.00    +0.000 OA
BRANCH   9  12
ATOM     10 BR   UNL     1      23.789  42.907  50.480  0.00  0.00    +0.000 Br
ATOM     11  C   UNL     1      24.824  42.112  49.103  0.00  0.00    +0.000 A 
ATOM     12  C   UNL     1      24.231  41.388  48.064  0.00  0.00    +0.000 A 
ATOM     13  C   UNL     1      26.214  42.273  49.145  0.00  0.00    +0.000 A 
ATOM     14  C   UNL     1      25.060  40.758  47.119  0.00  0.00    +0.000 A 
ATOM     15  C   UNL     1      27.018  41.710  48.152  0.00  0.00    +0.000 A 
ATOM     16  C   UNL     1      26.441  40.944  47.144  0.00  0.00    +0.000 A 
ENDBRANCH   9  12
ENDBRANCH   3   9
ENDBRANCH   1   8
BRANCH   2  17
ATOM     17  N   UNL     1      17.622  41.766  44.570  0.00  0.00    +0.000 N 
ATOM     18  C   UNL     1      17.389  42.717  45.546  0.00  0.00    +0.000 C 
ATOM     19  O   UNL     1      17.676  43.903  45.436  0.00  0.00    +0.000 OA
ATOM     20  H   UNL     1      17.203  40.883  44.686  0.00  0.00    +0.000 HD
BRANCH  18  21
ATOM     21  C   UNL     1      16.637  42.172  46.751  0.00  0.00    +0.000 C 
BRANCH  21  22
ATOM     22  C   UNL     1      16.145  40.753  46.456  0.00  0.00    +0.000 C 
BRANCH  22  23
ATOM     23  C   UNL     1      16.875  39.631  47.216  0.00  0.00    +0.000 C 
ATOM     24  C   UNL     1      18.294  39.449  46.643  0.00  0.00    +0.000 C 
ATOM     25  C   UNL     1      16.148  38.279  47.198  0.00  0.00    +0.000 C 
ATOM     26  C   UNL     1      18.285  38.853  45.235  0.00  0.00    +0.000 C 
ATOM     27  C   UNL     1      16.123  37.628  45.820  0.00  0.00    +0.000 C 
ATOM     28  C   UNL     1      17.505  37.545  45.172  0.00  0.00    +0.000 C 
ENDBRANCH  22  23
ENDBRANCH  21  22
ENDBRANCH  18  21
ENDBRANCH   2  17
BRANCH   2  29
ATOM     29  C   UNL     1      17.703  42.036  42.109  0.00  0.00    +0.000 C 
ATOM     30  O   UNL     1      16.828  41.278  41.724  0.00  0.00    +0.000 OA
ATOM     31  OXT UNL     1      18.167  43.066  41.362  0.00  0.00    +0.000 OA
ENDBRANCH   2  29
TORSDOF 8
ENDMDL
MODEL 6
REMARK VINA RESULT:      -6.9      3.009      6.633
REMARK  Name = 323399
REMARK  8 active torsions:
REMARK  status: ('A' for Active; 'I' for Inactive)
REMARK    1  A    between atoms: C_3  and  O_5
REMARK    2  A    between atoms: O_5  and  C_8
REMARK    3  A    between atoms: C_14  and  C_15
REMARK    4  A    between atoms: CA_16  and  N_17
REMARK    5  A    between atoms: CA_16  and  C_18
REMARK    6  A    between atoms: C_19  and  C_23
REMARK    7  A    between atoms: C_23  and  C_24
REMARK    8  A    between atoms: C_24  and  C_25
REMARK                            x       y       z     vdW  Elec       q    Type
REMARK                         _______ _______ _______ _____ _____    ______ ____
ROOT
ATOM      1  C   UNL     1      24.769  40.727  46.082  0.00  0.00    +0.000 C 
ATOM      2  CA  UNL     1      24.733  41.637  47.072  0.00  0.00    +0.000 C 
ENDROOT
BRANCH   1   8
ATOM      3  C   UNL     1      21.415  39.445  43.820  0.00  0.00    +0.000 A 
ATOM      4  C   UNL     1      22.409  38.520  44.136  0.00  0.00    +0.000 A 
ATOM      5  C   UNL     1      21.626  40.805  44.050  0.00  0.00    +0.000 A 
ATOM      6  C   UNL     1      23.560  38.943  44.813  0.00  0.00    +0.000 A 
ATOM      7  C   UNL     1      22.733  41.215  44.785  0.00  0.00    +0.000 A 
ATOM      8  C   UNL     1      23.704  40.288  45.179  0.00  0.00    +0.000 A 
BRANCH   3   9
ATOM      9  O   UNL     1      20.209  38.970  43.339  0.00  0.00    +0.000 OA
BRANCH   9  12
ATOM     10 BR   UNL     1      17.603  37.708  44.439  0.00  0.00    +0.000 Br
ATOM     11  C   UNL     1      17.886  39.443  43.726  0.00  0.00    +0.000 A 
ATOM     12  C   UNL     1      19.150  39.867  43.305  0.00  0.00    +0.000 A 
ATOM     13  C   UNL     1      16.785  40.302  43.622  0.00  0.00    +0.000 A 
ATOM     14  C   UNL     1      19.308  41.191  42.859  0.00  0.00    +0.000 A 
ATOM     15  C   UNL     1      16.942  41.588  43.100  0.00  0.00    +0.000 A 
ATOM     16  C   UNL     1      18.206  42.036  42.728  0.00  0.00    +0.000 A 
ENDBRANCH   9  12
ENDBRANCH   3   9
ENDBRANCH   1   8
BRANCH   2  17
ATOM     17  N   UNL     1      23.630  42.367  47.491  0.00  0.00    +0.000 N 
ATOM     18  C   UNL     1      22.451  41.823  47.964  0.00  0.00    +0.000 C 
ATOM     19  O   UNL     1      22.306  40.642  48.258  0.00  0.00    +0.000 OA
ATOM     20  H   UNL     1      23.692  43.349  47.448  0.00  0.00    +0.000 HD
BRANCH  18  21
ATOM     21  C   UNL     1      21.358  42.855  48.190  0.00  0.00    +0.000 C 
BRANCH  21  22
ATOM     22  C   UNL     1      19.985  42.186  48.100  0.00  0.00    +0.000 C 
BRANCH  22  23
ATOM     23  C   UNL     1      19.579  41.700  46.698  0.00  0.00    +0.000 C 
ATOM     24  C   UNL     1      18.588  42.696  46.066  0.00  0.00    +0.000 C 
ATOM     25  C   UNL     1      18.966  40.293  46.670  0.00  0.00    +0.000 C 
ATOM     26  C   UNL     1      17.224  42.682  46.756  0.00  0.00    +0.000 C 
ATOM     27  C   UNL     1      17.594  40.222  47.330  0.00  0.00    +0.000 C 
ATOM     28  C   UNL     1      16.623  41.282  46.809  0.00  0.00    +0.000 C 
ENDBRANCH  22  23
ENDBRANCH  21  22
ENDBRANCH  18  21
ENDBRANCH   2  17
BRANCH   2  29
ATOM     29  C   UNL     1      26.051  41.910  47.742  0.00  0.00    +0.000 C 
ATOM     30  O   UNL     1      26.697  41.104  48.392  0.00  0.00    +0.000 OA
ATOM     31  OXT UNL     1      26.455  43.187  47.542  0.00  0.00    +0.000 OA
ENDBRANCH   2  29
TORSDOF 8
ENDMDL
MODEL 7
REMARK VINA RESULT:      -6.9      3.021      6.729
REMARK  Name = 323399
REMARK  8 active torsions:
REMARK  status: ('A' for Active; 'I' for Inactive)
REMARK    1  A    between atoms: C_3  and  O_5
REMARK    2  A    between atoms: O_5  and  C_8
REMARK    3  A    between atoms: C_14  and  C_15
REMARK    4  A    between atoms: CA_16  and  N_17
REMARK    5  A    between atoms: CA_16  and  C_18
REMARK    6  A    between atoms: C_19  and  C_23
REMARK    7  A    between atoms: C_23  and  C_24
REMARK    8  A    between atoms: C_24  and  C_25
REMARK                            x       y       z     vdW  Elec       q    Type
REMARK                         _______ _______ _______ _____ _____    ______ ____
ROOT
ATOM      1  C   UNL     1      24.159  40.721  45.499  0.00  0.00    +0.000 C 
ATOM      2  CA  UNL     1      24.237  41.387  46.664  0.00  0.00    +0.000 C 
ENDROOT
BRANCH   1   8
ATOM      3  C   UNL     1      20.536  39.854  43.466  0.00  0.00    +0.000 A 
ATOM      4  C   UNL     1      21.475  38.836  43.636  0.00  0.00    +0.000 A 
ATOM      5  C   UNL     1      20.876  41.175  43.760  0.00  0.00    +0.000 A 
ATOM      6  C   UNL     1      22.709  39.123  44.234  0.00  0.00    +0.000 A 
ATOM      7  C   UNL     1      22.069  41.448  44.419  0.00  0.00    +0.000 A 
ATOM      8  C   UNL     1      22.991  40.426  44.668  0.00  0.00    +0.000 A 
BRANCH   3   9
ATOM      9  O   UNL     1      19.260  39.505  43.065  0.00  0.00    +0.000 OA
BRANCH   9  12
ATOM     10 BR   UNL     1      16.596  40.899  42.321  0.00  0.00    +0.000 Br
ATOM     11  C   UNL     1      17.058  39.966  43.907  0.00  0.00    +0.000 A 
ATOM     12  C   UNL     1      18.308  39.358  44.064  0.00  0.00    +0.000 A 
ATOM     13  C   UNL     1      16.111  39.904  44.936  0.00  0.00    +0.000 A 
ATOM     14  C   UNL     1      18.558  38.616  45.232  0.00  0.00    +0.000 A 
ATOM     15  C   UNL     1      16.405  39.233  46.125  0.00  0.00    +0.000 A 
ATOM     16  C   UNL     1      17.626  38.580  46.269  0.00  0.00    +0.000 A 
ENDBRANCH   9  12
ENDBRANCH   3   9
ENDBRANCH   1   8
BRANCH   2  17
ATOM     17  N   UNL     1      23.183  41.941  47.378  0.00  0.00    +0.000 N 
ATOM     18  C   UNL     1      22.045  41.260  47.768  0.00  0.00    +0.000 C 
ATOM     19  O   UNL     1      21.915  40.042  47.707  0.00  0.00    +0.000 OA
ATOM     20  H   UNL     1      23.251  42.891  47.625  0.00  0.00    +0.000 HD
BRANCH  18  21
ATOM     21  C   UNL     1      20.987  42.159  48.388  0.00  0.00    +0.000 C 
BRANCH  21  22
ATOM     22  C   UNL     1      19.752  42.203  47.487  0.00  0.00    +0.000 C 
BRANCH  22  23
ATOM     23  C   UNL     1      19.298  43.610  47.058  0.00  0.00    +0.000 C 
ATOM     24  C   UNL     1      17.889  43.896  47.611  0.00  0.00    +0.000 C 
ATOM     25  C   UNL     1      19.300  43.840  45.540  0.00  0.00    +0.000 C 
ATOM     26  C   UNL     1      16.810  43.052  46.931  0.00  0.00    +0.000 C 
ATOM     27  C   UNL     1      18.231  43.036  44.810  0.00  0.00    +0.000 C 
ATOM     28  C   UNL     1      16.837  43.204  45.415  0.00  0.00    +0.000 C 
ENDBRANCH  22  23
ENDBRANCH  21  22
ENDBRANCH  18  21
ENDBRANCH   2  17
BRANCH   2  29
ATOM     29  C   UNL     1      25.628  41.587  47.200  0.00  0.00    +0.000 C 
ATOM     30  O   UNL     1      26.008  42.549  47.846  0.00  0.00    +0.000 OA
ATOM     31  OXT UNL     1      26.438  40.552  46.874  0.00  0.00    +0.000 OA
ENDBRANCH   2  29
TORSDOF 8
ENDMDL
MODEL 8
REMARK VINA RESULT:      -6.2      2.909      7.459
REMARK  Name = 323399
REMARK  8 active torsions:
REMARK  status: ('A' for Active; 'I' for Inactive)
REMARK    1  A    between atoms: C_3  and  O_5
REMARK    2  A    between atoms: O_5  and  C_8
REMARK    3  A    between atoms: C_14  and  C_15
REMARK    4  A    between atoms: CA_16  and  N_17
REMARK    5  A    between atoms: CA_16  and  C_18
REMARK    6  A    between atoms: C_19  and  C_23
REMARK    7  A    between atoms: C_23  and  C_24
REMARK    8  A    between atoms: C_24  and  C_25
REMARK                            x       y       z     vdW  Elec       q    Type
REMARK                         _______ _______ _______ _____ _____    ______ ____
ROOT
ATOM      1  C   UNL     1      21.991  42.640  48.819  0.00  0.00    +0.000 C 
ATOM      2  CA  UNL     1      23.224  42.131  48.645  0.00  0.00    +0.000 C 
ENDROOT
BRANCH   1   8
ATOM      3  C   UNL     1      18.256  41.889  46.950  0.00  0.00    +0.000 A 
ATOM      4  C   UNL     1      19.268  40.937  46.841  0.00  0.00    +0.000 A 
ATOM      5  C   UNL     1      18.537  43.152  47.472  0.00  0.00    +0.000 A 
ATOM      6  C   UNL     1      20.533  41.203  47.383  0.00  0.00    +0.000 A 
ATOM      7  C   UNL     1      19.767  43.390  48.074  0.00  0.00    +0.000 A 
ATOM      8  C   UNL     1      20.771  42.417  48.042  0.00  0.00    +0.000 A 
BRANCH   3   9
ATOM      9  O   UNL     1      16.972  41.521  46.591  0.00  0.00    +0.000 OA
BRANCH   9  12
ATOM     10 BR   UNL     1      17.321  41.084  43.545  0.00  0.00    +0.000 Br
ATOM     11  C   UNL     1      16.855  39.829  44.890  0.00  0.00    +0.000 A 
ATOM     12  C   UNL     1      16.777  40.193  46.238  0.00  0.00    +0.000 A 
ATOM     13  C   UNL     1      16.579  38.514  44.498  0.00  0.00    +0.000 A 
ATOM     14  C   UNL     1      16.502  39.198  47.193  0.00  0.00    +0.000 A 
ATOM     15  C   UNL     1      16.226  37.555  45.450  0.00  0.00    +0.000 A 
ATOM     16  C   UNL     1      16.198  37.896  46.800  0.00  0.00    +0.000 A 
ENDBRANCH   9  12
ENDBRANCH   3   9
ENDBRANCH   1   8
BRANCH   2  17
ATOM     17  N   UNL     1      23.633  41.270  47.637  0.00  0.00    +0.000 N 
ATOM     18  C   UNL     1      23.947  39.935  47.813  0.00  0.00    +0.000 C 
ATOM     19  O   UNL     1      23.712  39.300  48.835  0.00  0.00    +0.000 OA
ATOM     20  H   UNL     1      23.707  41.638  46.727  0.00  0.00    +0.000 HD
BRANCH  18  21
ATOM     21  C   UNL     1      24.526  39.282  46.567  0.00  0.00    +0.000 C 
BRANCH  21  22
ATOM     22  C   UNL     1      23.395  38.729  45.698  0.00  0.00    +0.000 C 
BRANCH  22  23
ATOM     23  C   UNL     1      23.398  39.199  44.233  0.00  0.00    +0.000 C 
ATOM     24  C   UNL     1      23.562  40.730  44.175  0.00  0.00    +0.000 C 
ATOM     25  C   UNL     1      22.150  38.795  43.436  0.00  0.00    +0.000 C 
ATOM     26  C   UNL     1      22.326  41.470  44.687  0.00  0.00    +0.000 C 
ATOM     27  C   UNL     1      20.887  39.517  43.892  0.00  0.00    +0.000 C 
ATOM     28  C   UNL     1      21.057  41.035  43.964  0.00  0.00    +0.000 C 
ENDBRANCH  22  23
ENDBRANCH  21  22
ENDBRANCH  18  21
ENDBRANCH   2  17
BRANCH   2  29
ATOM     29  C   UNL     1      24.229  42.507  49.698  0.00  0.00    +0.000 C 
ATOM     30  O   UNL     1      24.011  42.567  50.897  0.00  0.00    +0.000 OA
ATOM     31  OXT UNL     1      25.438  42.783  49.154  0.00  0.00    +0.000 OA
ENDBRANCH   2  29
TORSDOF 8
ENDMDL
MODEL 9
REMARK VINA RESULT:      -5.8      2.712      7.616
REMARK  Name = 323399
REMARK  8 active torsions:
REMARK  status: ('A' for Active; 'I' for Inactive)
REMARK    1  A    between atoms: C_3  and  O_5
REMARK    2  A    between atoms: O_5  and  C_8
REMARK    3  A    between atoms: C_14  and  C_15
REMARK    4  A    between atoms: CA_16  and  N_17
REMARK    5  A    between atoms: CA_16  and  C_18
REMARK    6  A    between atoms: C_19  and  C_23
REMARK    7  A    between atoms: C_23  and  C_24
REMARK    8  A    between atoms: C_24  and  C_25
REMARK                            x       y       z     vdW  Elec       q    Type
REMARK                         _______ _______ _______ _____ _____    ______ ____
ROOT
ATOM      1  C   UNL     1      22.537  39.134  44.389  0.00  0.00    +0.000 C 
ATOM      2  CA  UNL     1      23.281  39.604  45.407  0.00  0.00    +0.000 C 
ENDROOT
BRANCH   1   8
ATOM      3  C   UNL     1      18.667  40.575  43.413  0.00  0.00    +0.000 A 
ATOM      4  C   UNL     1      18.838  39.213  43.659  0.00  0.00    +0.000 A 
ATOM      5  C   UNL     1      19.780  41.405  43.273  0.00  0.00    +0.000 A 
ATOM      6  C   UNL     1      20.121  38.708  43.904  0.00  0.00    +0.000 A 
ATOM      7  C   UNL     1      21.044  40.920  43.587  0.00  0.00    +0.000 A 
ATOM      8  C   UNL     1      21.224  39.572  43.913  0.00  0.00    +0.000 A 
BRANCH   3   9
ATOM      9  O   UNL     1      17.379  41.075  43.377  0.00  0.00    +0.000 OA
BRANCH   9  12
ATOM     10 BR   UNL     1      17.198  39.941  46.254  0.00  0.00    +0.000 Br
ATOM     11  C   UNL     1      16.902  41.714  45.644  0.00  0.00    +0.000 A 
ATOM     12  C   UNL     1      17.066  42.064  44.300  0.00  0.00    +0.000 A 
ATOM     13  C   UNL     1      16.504  42.676  46.579  0.00  0.00    +0.000 A 
ATOM     14  C   UNL     1      16.907  43.411  43.927  0.00  0.00    +0.000 A 
ATOM     15  C   UNL     1      16.269  43.993  46.179  0.00  0.00    +0.000 A 
ATOM     16  C   UNL     1      16.481  44.362  44.853  0.00  0.00    +0.000 A 
ENDBRANCH   9  12
ENDBRANCH   3   9
ENDBRANCH   1   8
BRANCH   2  17
ATOM     17  N   UNL     1      22.943  40.627  46.280  0.00  0.00    +0.000 N 
ATOM     18  C   UNL     1      21.755  40.712  46.982  0.00  0.00    +0.000 C 
ATOM     19  O   UNL     1      20.941  39.801  47.072  0.00  0.00    +0.000 OA
ATOM     20  H   UNL     1      23.600  41.349  46.410  0.00  0.00    +0.000 HD
BRANCH  18  21
ATOM     21  C   UNL     1      21.590  42.025  47.731  0.00  0.00    +0.000 C 
BRANCH  21  22
ATOM     22  C   UNL     1      22.954  42.520  48.216  0.00  0.00    +0.000 C 
BRANCH  22  23
ATOM     23  C   UNL     1      23.704  41.566  49.162  0.00  0.00    +0.000 C 
ATOM     24  C   UNL     1      23.875  42.226  50.543  0.00  0.00    +0.000 C 
ATOM     25  C   UNL     1      25.077  41.114  48.645  0.00  0.00    +0.000 C 
ATOM     26  C   UNL     1      24.859  43.397  50.514  0.00  0.00    +0.000 C 
ATOM     27  C   UNL     1      26.106  42.238  48.612  0.00  0.00    +0.000 C 
ATOM     28  C   UNL     1      26.210  42.994  49.936  0.00  0.00    +0.000 C 
ENDBRANCH  22  23
ENDBRANCH  21  22
ENDBRANCH  18  21
ENDBRANCH   2  17
BRANCH   2  29
ATOM     29  C   UNL     1      24.637  38.972  45.557  0.00  0.00    +0.000 C 
ATOM     30  O   UNL     1      24.857  37.775  45.634  0.00  0.00    +0.000 OA
ATOM     31  OXT UNL     1      25.618  39.905  45.602  0.00  0.00    +0.000 OA
ENDBRANCH   2  29
TORSDOF 8
ENDMDL
