MODEL 1
REMARK VINA RESULT:      -0.8      0.000      0.000
REMARK  Name = 324454
REMARK  8 active torsions:
REMARK  status: ('A' for Active; 'I' for Inactive)
REMARK    1  A    between atoms: C_3  and  O_5
REMARK    2  A    between atoms: O_5  and  C_8
REMARK    3  A    between atoms: C_14  and  C_15
REMARK    4  A    between atoms: C_16  and  N_17
REMARK    5  A    between atoms: C_16  and  C_18
REMARK    6  A    between atoms: C_19  and  C_23
REMARK    7  A    between atoms: N_21  and  C_24
REMARK    8  A    between atoms: C_27  and  O_31
REMARK                            x       y       z     vdW  Elec       q    Type
REMARK                         _______ _______ _______ _____ _____    ______ ____
ROOT
ATOM      1  C   UNL     1      20.713  40.245  43.625  0.00  0.00    +0.000 C 
ATOM      2  C   UNL     1      19.564  40.927  43.797  0.00  0.00    +0.000 C 
ENDROOT
BRANCH   1   8
ATOM      3  C   UNL     1      23.941  40.235  46.358  0.00  0.00    +0.000 A 
ATOM      4  C   UNL     1      23.344  41.444  45.999  0.00  0.00    +0.000 A 
ATOM      5  C   UNL     1      23.669  39.081  45.619  0.00  0.00    +0.000 A 
ATOM      6  C   UNL     1      22.364  41.470  44.999  0.00  0.00    +0.000 A 
ATOM      7  C   UNL     1      22.671  39.099  44.637  0.00  0.00    +0.000 A 
ATOM      8  C   UNL     1      21.982  40.286  44.356  0.00  0.00    +0.000 A 
BRANCH   3   9
ATOM      9  O   UNL     1      24.773  40.240  47.460  0.00  0.00    +0.000 OA
BRANCH   9  12
ATOM     10 BR   UNL     1      27.489  41.495  48.237  0.00  0.00    +0.000 Br
ATOM     11  C   UNL     1      25.753  41.903  48.886  0.00  0.00    +0.000 A 
ATOM     12  C   UNL     1      24.613  41.251  48.396  0.00  0.00    +0.000 A 
ATOM     13  C   UNL     1      25.636  42.887  49.875  0.00  0.00    +0.000 A 
ATOM     14  C   UNL     1      23.352  41.671  48.845  0.00  0.00    +0.000 A 
ATOM     15  C   UNL     1      24.380  43.242  50.366  0.00  0.00    +0.000 A 
ATOM     16  C   UNL     1      23.237  42.644  49.842  0.00  0.00    +0.000 A 
ENDBRANCH   9  12
ENDBRANCH   3   9
ENDBRANCH   1   8
BRANCH   2  17
ATOM     17  N   UNL     1      19.327  41.770  44.867  0.00  0.00    +0.000 N 
ATOM     18  C   UNL     1      18.478  41.365  45.885  0.00  0.00    +0.000 C 
ATOM     19  O   UNL     1      17.994  40.242  45.967  0.00  0.00    +0.000 OA
ATOM     20  H   UNL     1      19.760  42.654  44.906  0.00  0.00    +0.000 HD
BRANCH  18  21
ATOM     21  C   UNL     1      18.165  42.375  46.928  0.00  0.00    +0.000 A 
ATOM     22  C   UNL     1      19.068  42.566  47.979  0.00  0.00    +0.000 A 
ATOM     23  C   UNL     1      17.067  43.233  46.782  0.00  0.00    +0.000 A 
ATOM     24  C   UNL     1      18.895  43.632  48.864  0.00  0.00    +0.000 A 
ATOM     25  C   UNL     1      16.908  44.307  47.663  0.00  0.00    +0.000 A 
ATOM     26  C   UNL     1      17.828  44.512  48.693  0.00  0.00    +0.000 A 
ENDBRANCH  18  21
ENDBRANCH   2  17
BRANCH   2  27
ATOM     27  C   UNL     1      18.481  40.600  42.778  0.00  0.00    +0.000 C 
ATOM     28  O   UNL     1      18.013  39.461  42.734  0.00  0.00    +0.000 OA
ATOM     29  N   UNL     1      18.074  41.618  41.947  0.00  0.00    +0.000 N 
ATOM     30  H   UNL     1      18.556  42.472  42.036  0.00  0.00    +0.000 HD
BRANCH  29  31
ATOM     31  C   UNL     1      17.029  41.579  40.966  0.00  0.00    +0.000 A 
ATOM     32  C   UNL     1      15.784  40.925  41.076  0.00  0.00    +0.000 A 
ATOM     33  C   UNL     1      17.272  42.289  39.781  0.00  0.00    +0.000 A 
ATOM     34  C   UNL     1      14.846  40.956  40.039  0.00  0.00    +0.000 A 
ATOM     35  C   UNL     1      16.337  42.307  38.732  0.00  0.00    +0.000 A 
ATOM     36  C   UNL     1      15.124  41.636  38.858  0.00  0.00    +0.000 A 
BRANCH  32  37
ATOM     37  O   UNL     1      15.341  40.247  42.179  0.00  0.00    +0.000 OA
ATOM     38  H   UNL     1      15.063  40.720  42.939  0.00  0.00    +0.000 HD
ENDBRANCH  32  37
ENDBRANCH  29  31
ENDBRANCH   2  27
TORSDOF 8
ENDMDL
MODEL 2
REMARK VINA RESULT:      -0.4      3.365      8.769
REMARK  Name = 324454
REMARK  8 active torsions:
REMARK  status: ('A' for Active; 'I' for Inactive)
REMARK    1  A    between atoms: C_3  and  O_5
REMARK    2  A    between atoms: O_5  and  C_8
REMARK    3  A    between atoms: C_14  and  C_15
REMARK    4  A    between atoms: C_16  and  N_17
REMARK    5  A    between atoms: C_16  and  C_18
REMARK    6  A    between atoms: C_19  and  C_23
REMARK    7  A    between atoms: N_21  and  C_24
REMARK    8  A    between atoms: C_27  and  O_31
REMARK                            x       y       z     vdW  Elec       q    Type
REMARK                         _______ _______ _______ _____ _____    ______ ____
ROOT
ATOM      1  C   UNL     1      22.975  41.098  45.664  0.00  0.00    +0.000 C 
ATOM      2  C   UNL     1      22.723  41.930  46.693  0.00  0.00    +0.000 C 
ENDROOT
BRANCH   1   8
ATOM      3  C   UNL     1      19.900  39.295  43.387  0.00  0.00    +0.000 A 
ATOM      4  C   UNL     1      20.875  38.496  43.986  0.00  0.00    +0.000 A 
ATOM      5  C   UNL     1      20.091  40.676  43.302  0.00  0.00    +0.000 A 
ATOM      6  C   UNL     1      21.967  39.091  44.631  0.00  0.00    +0.000 A 
ATOM      7  C   UNL     1      21.168  41.274  43.967  0.00  0.00    +0.000 A 
ATOM      8  C   UNL     1      22.085  40.486  44.674  0.00  0.00    +0.000 A 
BRANCH   3   9
ATOM      9  O   UNL     1      18.765  38.665  42.916  0.00  0.00    +0.000 OA
BRANCH   9  12
ATOM     10 BR   UNL     1      16.768  40.939  43.550  0.00  0.00    +0.000 Br
ATOM     11  C   UNL     1      16.849  39.183  44.266  0.00  0.00    +0.000 A 
ATOM     12  C   UNL     1      17.812  38.259  43.839  0.00  0.00    +0.000 A 
ATOM     13  C   UNL     1      15.908  38.828  45.240  0.00  0.00    +0.000 A 
ATOM     14  C   UNL     1      17.753  36.947  44.334  0.00  0.00    +0.000 A 
ATOM     15  C   UNL     1      15.908  37.541  45.778  0.00  0.00    +0.000 A 
ATOM     16  C   UNL     1      16.821  36.597  45.316  0.00  0.00    +0.000 A 
ENDBRANCH   9  12
ENDBRANCH   3   9
ENDBRANCH   1   8
BRANCH   2  17
ATOM     17  N   UNL     1      21.485  42.493  46.938  0.00  0.00    +0.000 N 
ATOM     18  C   UNL     1      20.406  41.675  47.234  0.00  0.00    +0.000 C 
ATOM     19  O   UNL     1      20.491  40.465  47.406  0.00  0.00    +0.000 OA
ATOM     20  H   UNL     1      21.370  43.471  46.904  0.00  0.00    +0.000 HD
BRANCH  18  21
ATOM     21  C   UNL     1      19.083  42.340  47.349  0.00  0.00    +0.000 A 
ATOM     22  C   UNL     1      19.028  43.668  47.786  0.00  0.00    +0.000 A 
ATOM     23  C   UNL     1      17.924  41.707  46.881  0.00  0.00    +0.000 A 
ATOM     24  C   UNL     1      17.825  44.375  47.725  0.00  0.00    +0.000 A 
ATOM     25  C   UNL     1      16.727  42.425  46.808  0.00  0.00    +0.000 A 
ATOM     26  C   UNL     1      16.682  43.759  47.217  0.00  0.00    +0.000 A 
ENDBRANCH  18  21
ENDBRANCH   2  17
BRANCH   2  27
ATOM     27  C   UNL     1      23.953  42.310  47.508  0.00  0.00    +0.000 C 
ATOM     28  O   UNL     1      24.958  42.728  46.931  0.00  0.00    +0.000 OA
ATOM     29  N   UNL     1      23.869  42.164  48.874  0.00  0.00    +0.000 N 
ATOM     30  H   UNL     1      23.035  41.771  49.219  0.00  0.00    +0.000 HD
BRANCH  29  31
ATOM     31  C   UNL     1      24.855  42.521  49.851  0.00  0.00    +0.000 A 
ATOM     32  C   UNL     1      26.256  42.432  49.716  0.00  0.00    +0.000 A 
ATOM     33  C   UNL     1      24.363  43.032  51.062  0.00  0.00    +0.000 A 
ATOM     34  C   UNL     1      27.117  42.807  50.753  0.00  0.00    +0.000 A 
ATOM     35  C   UNL     1      25.227  43.394  52.110  0.00  0.00    +0.000 A 
ATOM     36  C   UNL     1      26.605  43.277  51.958  0.00  0.00    +0.000 A 
BRANCH  32  37
ATOM     37  O   UNL     1      26.919  42.028  48.590  0.00  0.00    +0.000 OA
ATOM     38  H   UNL     1      27.668  42.505  48.291  0.00  0.00    +0.000 HD
ENDBRANCH  32  37
ENDBRANCH  29  31
ENDBRANCH   2  27
TORSDOF 8
ENDMDL
MODEL 3
REMARK VINA RESULT:       0.6      2.307      3.383
REMARK  Name = 324454
REMARK  8 active torsions:
REMARK  status: ('A' for Active; 'I' for Inactive)
REMARK    1  A    between atoms: C_3  and  O_5
REMARK    2  A    between atoms: O_5  and  C_8
REMARK    3  A    between atoms: C_14  and  C_15
REMARK    4  A    between atoms: C_16  and  N_17
REMARK    5  A    between atoms: C_16  and  C_18
REMARK    6  A    between atoms: C_19  and  C_23
REMARK    7  A    between atoms: N_21  and  C_24
REMARK    8  A    between atoms: C_27  and  O_31
REMARK                            x       y       z     vdW  Elec       q    Type
REMARK                         _______ _______ _______ _____ _____    ______ ____
ROOT
ATOM      1  C   UNL     1      20.177  42.223  43.922  0.00  0.00    +0.000 C 
ATOM      2  C   UNL     1      18.949  41.681  43.808  0.00  0.00    +0.000 C 
ENDROOT
BRANCH   1   8
ATOM      3  C   UNL     1      22.721  41.184  47.137  0.00  0.00    +0.000 A 
ATOM      4  C   UNL     1      21.927  42.328  47.226  0.00  0.00    +0.000 A 
ATOM      5  C   UNL     1      22.885  40.548  45.904  0.00  0.00    +0.000 A 
ATOM      6  C   UNL     1      21.182  42.750  46.118  0.00  0.00    +0.000 A 
ATOM      7  C   UNL     1      22.122  40.953  44.802  0.00  0.00    +0.000 A 
ATOM      8  C   UNL     1      21.232  42.028  44.919  0.00  0.00    +0.000 A 
BRANCH   3   9
ATOM      9  O   UNL     1      23.298  40.718  48.302  0.00  0.00    +0.000 OA
BRANCH   9  12
ATOM     10 BR   UNL     1      26.090  40.923  46.991  0.00  0.00    +0.000 Br
ATOM     11  C   UNL     1      25.446  41.755  48.570  0.00  0.00    +0.000 A 
ATOM     12  C   UNL     1      24.128  41.576  49.010  0.00  0.00    +0.000 A 
ATOM     13  C   UNL     1      26.330  42.566  49.292  0.00  0.00    +0.000 A 
ATOM     14  C   UNL     1      23.686  42.300  50.128  0.00  0.00    +0.000 A 
ATOM     15  C   UNL     1      25.898  43.222  50.445  0.00  0.00    +0.000 A 
ATOM     16  C   UNL     1      24.573  43.100  50.855  0.00  0.00    +0.000 A 
ENDBRANCH   9  12
ENDBRANCH   3   9
ENDBRANCH   1   8
BRANCH   2  17
ATOM     17  N   UNL     1      18.481  40.665  44.621  0.00  0.00    +0.000 N 
ATOM     18  C   UNL     1      18.584  39.348  44.201  0.00  0.00    +0.000 C 
ATOM     19  O   UNL     1      19.173  38.997  43.185  0.00  0.00    +0.000 OA
ATOM     20  H   UNL     1      18.077  40.876  45.494  0.00  0.00    +0.000 HD
BRANCH  18  21
ATOM     21  C   UNL     1      17.938  38.326  45.063  0.00  0.00    +0.000 A 
ATOM     22  C   UNL     1      17.238  38.744  46.201  0.00  0.00    +0.000 A 
ATOM     23  C   UNL     1      17.892  36.984  44.665  0.00  0.00    +0.000 A 
ATOM     24  C   UNL     1      16.466  37.830  46.921  0.00  0.00    +0.000 A 
ATOM     25  C   UNL     1      17.105  36.077  45.382  0.00  0.00    +0.000 A 
ATOM     26  C   UNL     1      16.385  36.503  46.500  0.00  0.00    +0.000 A 
ENDBRANCH  18  21
ENDBRANCH   2  17
BRANCH   2  27
ATOM     27  C   UNL     1      18.145  42.191  42.619  0.00  0.00    +0.000 C 
ATOM     28  O   UNL     1      18.377  43.314  42.168  0.00  0.00    +0.000 OA
ATOM     29  N   UNL     1      17.188  41.349  42.101  0.00  0.00    +0.000 N 
ATOM     30  H   UNL     1      17.055  40.497  42.576  0.00  0.00    +0.000 HD
BRANCH  29  31
ATOM     31  C   UNL     1      16.363  41.570  40.950  0.00  0.00    +0.000 A 
ATOM     32  C   UNL     1      16.698  42.300  39.791  0.00  0.00    +0.000 A 
ATOM     33  C   UNL     1      15.094  40.972  40.980  0.00  0.00    +0.000 A 
ATOM     34  C   UNL     1      15.796  42.449  38.732  0.00  0.00    +0.000 A 
ATOM     35  C   UNL     1      14.181  41.134  39.924  0.00  0.00    +0.000 A 
ATOM     36  C   UNL     1      14.530  41.878  38.800  0.00  0.00    +0.000 A 
BRANCH  32  37
ATOM     37  O   UNL     1      17.909  42.890  39.550  0.00  0.00    +0.000 OA
ATOM     38  H   UNL     1      17.986  43.548  38.886  0.00  0.00    +0.000 HD
ENDBRANCH  32  37
ENDBRANCH  29  31
ENDBRANCH   2  27
TORSDOF 8
ENDMDL
MODEL 4
REMARK VINA RESULT:       1.5      3.426      9.168
REMARK  Name = 324454
REMARK  8 active torsions:
REMARK  status: ('A' for Active; 'I' for Inactive)
REMARK    1  A    between atoms: C_3  and  O_5
REMARK    2  A    between atoms: O_5  and  C_8
REMARK    3  A    between atoms: C_14  and  C_15
REMARK    4  A    between atoms: C_16  and  N_17
REMARK    5  A    between atoms: C_16  and  C_18
REMARK    6  A    between atoms: C_19  and  C_23
REMARK    7  A    between atoms: N_21  and  C_24
REMARK    8  A    between atoms: C_27  and  O_31
REMARK                            x       y       z     vdW  Elec       q    Type
REMARK                         _______ _______ _______ _____ _____    ______ ____
ROOT
ATOM      1  C   UNL     1      21.865  42.069  45.653  0.00  0.00    +0.000 C 
ATOM      2  C   UNL     1      21.648  41.050  46.507  0.00  0.00    +0.000 C 
ENDROOT
BRANCH   1   8
ATOM      3  C   UNL     1      19.342  42.791  42.336  0.00  0.00    +0.000 A 
ATOM      4  C   UNL     1      20.161  41.661  42.348  0.00  0.00    +0.000 A 
ATOM      5  C   UNL     1      19.554  43.811  43.267  0.00  0.00    +0.000 A 
ATOM      6  C   UNL     1      21.092  41.484  43.379  0.00  0.00    +0.000 A 
ATOM      7  C   UNL     1      20.466  43.624  44.313  0.00  0.00    +0.000 A 
ATOM      8  C   UNL     1      21.205  42.437  44.398  0.00  0.00    +0.000 A 
BRANCH   3   9
ATOM      9  O   UNL     1      18.331  42.832  41.396  0.00  0.00    +0.000 OA
BRANCH   9  12
ATOM     10 BR   UNL     1      16.737  42.601  38.757  0.00  0.00    +0.000 Br
ATOM     11  C   UNL     1      16.445  41.720  40.413  0.00  0.00    +0.000 A 
ATOM     12  C   UNL     1      17.293  41.919  41.511  0.00  0.00    +0.000 A 
ATOM     13  C   UNL     1      15.351  40.851  40.510  0.00  0.00    +0.000 A 
ATOM     14  C   UNL     1      17.081  41.161  42.673  0.00  0.00    +0.000 A 
ATOM     15  C   UNL     1      15.109  40.159  41.697  0.00  0.00    +0.000 A 
ATOM     16  C   UNL     1      15.981  40.303  42.773  0.00  0.00    +0.000 A 
ENDBRANCH   9  12
ENDBRANCH   3   9
ENDBRANCH   1   8
BRANCH   2  17
ATOM     17  N   UNL     1      20.590  40.168  46.394  0.00  0.00    +0.000 N 
ATOM     18  C   UNL     1      19.290  40.648  46.417  0.00  0.00    +0.000 C 
ATOM     19  O   UNL     1      19.000  41.839  46.420  0.00  0.00    +0.000 OA
ATOM     20  H   UNL     1      20.759  39.202  46.297  0.00  0.00    +0.000 HD
BRANCH  18  21
ATOM     21  C   UNL     1      18.208  39.631  46.429  0.00  0.00    +0.000 A 
ATOM     22  C   UNL     1      17.131  39.799  47.307  0.00  0.00    +0.000 A 
ATOM     23  C   UNL     1      18.181  38.607  45.474  0.00  0.00    +0.000 A 
ATOM     24  C   UNL     1      16.014  38.967  47.209  0.00  0.00    +0.000 A 
ATOM     25  C   UNL     1      17.053  37.788  45.371  0.00  0.00    +0.000 A 
ATOM     26  C   UNL     1      15.968  37.976  46.229  0.00  0.00    +0.000 A 
ENDBRANCH  18  21
ENDBRANCH   2  17
BRANCH   2  27
ATOM     27  C   UNL     1      22.598  41.015  47.697  0.00  0.00    +0.000 C 
ATOM     28  O   UNL     1      22.823  39.944  48.263  0.00  0.00    +0.000 OA
ATOM     29  N   UNL     1      23.168  42.208  48.080  0.00  0.00    +0.000 N 
ATOM     30  H   UNL     1      22.873  43.009  47.588  0.00  0.00    +0.000 HD
BRANCH  29  31
ATOM     31  C   UNL     1      24.140  42.419  49.112  0.00  0.00    +0.000 A 
ATOM     32  C   UNL     1      25.539  42.279  49.003  0.00  0.00    +0.000 A 
ATOM     33  C   UNL     1      23.637  42.830  50.355  0.00  0.00    +0.000 A 
ATOM     34  C   UNL     1      26.386  42.509  50.092  0.00  0.00    +0.000 A 
ATOM     35  C   UNL     1      24.485  43.045  51.455  0.00  0.00    +0.000 A 
ATOM     36  C   UNL     1      25.861  42.880  51.326  0.00  0.00    +0.000 A 
BRANCH  32  37
ATOM     37  O   UNL     1      26.216  41.959  47.857  0.00  0.00    +0.000 OA
ATOM     38  H   UNL     1      26.308  42.596  47.175  0.00  0.00    +0.000 HD
ENDBRANCH  32  37
ENDBRANCH  29  31
ENDBRANCH   2  27
TORSDOF 8
ENDMDL
MODEL 5
REMARK VINA RESULT:       1.6      3.144      3.992
REMARK  Name = 324454
REMARK  8 active torsions:
REMARK  status: ('A' for Active; 'I' for Inactive)
REMARK    1  A    between atoms: C_3  and  O_5
REMARK    2  A    between atoms: O_5  and  C_8
REMARK    3  A    between atoms: C_14  and  C_15
REMARK    4  A    between atoms: C_16  and  N_17
REMARK    5  A    between atoms: C_16  and  C_18
REMARK    6  A    between atoms: C_19  and  C_23
REMARK    7  A    between atoms: N_21  and  C_24
REMARK    8  A    between atoms: C_27  and  O_31
REMARK                            x       y       z     vdW  Elec       q    Type
REMARK                         _______ _______ _______ _____ _____    ______ ____
ROOT
ATOM      1  C   UNL     1      20.516  39.049  44.447  0.00  0.00    +0.000 C 
ATOM      2  C   UNL     1      19.242  39.444  44.634  0.00  0.00    +0.000 C 
ENDROOT
BRANCH   1   8
ATOM      3  C   UNL     1      24.214  40.752  45.598  0.00  0.00    +0.000 A 
ATOM      4  C   UNL     1      23.027  41.442  45.849  0.00  0.00    +0.000 A 
ATOM      5  C   UNL     1      24.207  39.654  44.733  0.00  0.00    +0.000 A 
ATOM      6  C   UNL     1      21.813  40.948  45.357  0.00  0.00    +0.000 A 
ATOM      7  C   UNL     1      22.992  39.144  44.261  0.00  0.00    +0.000 A 
ATOM      8  C   UNL     1      21.785  39.763  44.610  0.00  0.00    +0.000 A 
BRANCH   3   9
ATOM      9  O   UNL     1      25.352  41.187  46.246  0.00  0.00    +0.000 OA
BRANCH   9  12
ATOM     10 BR   UNL     1      23.682  39.326  48.063  0.00  0.00    +0.000 Br
ATOM     11  C   UNL     1      24.455  41.012  48.465  0.00  0.00    +0.000 A 
ATOM     12  C   UNL     1      25.218  41.715  47.522  0.00  0.00    +0.000 A 
ATOM     13  C   UNL     1      24.247  41.541  49.745  0.00  0.00    +0.000 A 
ATOM     14  C   UNL     1      25.845  42.906  47.916  0.00  0.00    +0.000 A 
ATOM     15  C   UNL     1      24.816  42.765  50.099  0.00  0.00    +0.000 A 
ATOM     16  C   UNL     1      25.627  43.441  49.189  0.00  0.00    +0.000 A 
ENDBRANCH   9  12
ENDBRANCH   3   9
ENDBRANCH   1   8
BRANCH   2  17
ATOM     17  N   UNL     1      18.891  40.666  45.177  0.00  0.00    +0.000 N 
ATOM     18  C   UNL     1      18.498  40.740  46.504  0.00  0.00    +0.000 C 
ATOM     19  O   UNL     1      18.543  39.797  47.285  0.00  0.00    +0.000 OA
ATOM     20  H   UNL     1      18.921  41.481  44.623  0.00  0.00    +0.000 HD
BRANCH  18  21
ATOM     21  C   UNL     1      18.005  42.059  46.976  0.00  0.00    +0.000 A 
ATOM     22  C   UNL     1      18.839  42.846  47.778  0.00  0.00    +0.000 A 
ATOM     23  C   UNL     1      16.794  42.578  46.503  0.00  0.00    +0.000 A 
ATOM     24  C   UNL     1      18.481  44.161  48.079  0.00  0.00    +0.000 A 
ATOM     25  C   UNL     1      16.448  43.901  46.795  0.00  0.00    +0.000 A 
ATOM     26  C   UNL     1      17.296  44.693  47.571  0.00  0.00    +0.000 A 
ENDBRANCH  18  21
ENDBRANCH   2  17
BRANCH   2  27
ATOM     27  C   UNL     1      18.201  38.379  44.313  0.00  0.00    +0.000 C 
ATOM     28  O   UNL     1      17.231  38.671  43.612  0.00  0.00    +0.000 OA
ATOM     29  N   UNL     1      18.409  37.123  44.834  0.00  0.00    +0.000 N 
ATOM     30  H   UNL     1      19.191  37.020  45.424  0.00  0.00    +0.000 HD
BRANCH  29  31
ATOM     31  C   UNL     1      17.619  35.947  44.615  0.00  0.00    +0.000 A 
ATOM     32  C   UNL     1      17.076  35.093  45.598  0.00  0.00    +0.000 A 
ATOM     33  C   UNL     1      17.345  35.631  43.276  0.00  0.00    +0.000 A 
ATOM     34  C   UNL     1      16.323  33.966  45.253  0.00  0.00    +0.000 A 
ATOM     35  C   UNL     1      16.603  34.490  42.928  0.00  0.00    +0.000 A 
ATOM     36  C   UNL     1      16.095  33.653  43.917  0.00  0.00    +0.000 A 
BRANCH  32  37
ATOM     37  O   UNL     1      17.174  35.279  46.950  0.00  0.00    +0.000 OA
ATOM     38  H   UNL     1      17.893  35.765  47.305  0.00  0.00    +0.000 HD
ENDBRANCH  32  37
ENDBRANCH  29  31
ENDBRANCH   2  27
TORSDOF 8
ENDMDL
MODEL 6
REMARK VINA RESULT:       2.0      3.338      4.288
REMARK  Name = 324454
REMARK  8 active torsions:
REMARK  status: ('A' for Active; 'I' for Inactive)
REMARK    1  A    between atoms: C_3  and  O_5
REMARK    2  A    between atoms: O_5  and  C_8
REMARK    3  A    between atoms: C_14  and  C_15
REMARK    4  A    between atoms: C_16  and  N_17
REMARK    5  A    between atoms: C_16  and  C_18
REMARK    6  A    between atoms: C_19  and  C_23
REMARK    7  A    between atoms: N_21  and  C_24
REMARK    8  A    between atoms: C_27  and  O_31
REMARK                            x       y       z     vdW  Elec       q    Type
REMARK                         _______ _______ _______ _____ _____    ______ ____
ROOT
ATOM      1  C   UNL     1      20.249  38.784  44.690  0.00  0.00    +0.000 C 
ATOM      2  C   UNL     1      18.972  39.028  45.042  0.00  0.00    +0.000 C 
ENDROOT
BRANCH   1   8
ATOM      3  C   UNL     1      23.738  40.885  45.834  0.00  0.00    +0.000 A 
ATOM      4  C   UNL     1      22.503  41.535  45.851  0.00  0.00    +0.000 A 
ATOM      5  C   UNL     1      23.864  39.654  45.185  0.00  0.00    +0.000 A 
ATOM      6  C   UNL     1      21.366  40.888  45.351  0.00  0.00    +0.000 A 
ATOM      7  C   UNL     1      22.725  38.995  44.708  0.00  0.00    +0.000 A 
ATOM      8  C   UNL     1      21.464  39.592  44.832  0.00  0.00    +0.000 A 
BRANCH   3   9
ATOM      9  O   UNL     1      24.788  41.497  46.490  0.00  0.00    +0.000 OA
BRANCH   9  12
ATOM     10 BR   UNL     1      27.441  41.641  48.070  0.00  0.00    +0.000 Br
ATOM     11  C   UNL     1      25.677  42.027  48.655  0.00  0.00    +0.000 A 
ATOM     12  C   UNL     1      24.579  41.938  47.789  0.00  0.00    +0.000 A 
ATOM     13  C   UNL     1      25.498  42.411  49.990  0.00  0.00    +0.000 A 
ATOM     14  C   UNL     1      23.317  42.335  48.257  0.00  0.00    +0.000 A 
ATOM     15  C   UNL     1      24.225  42.731  50.462  0.00  0.00    +0.000 A 
ATOM     16  C   UNL     1      23.137  42.706  49.593  0.00  0.00    +0.000 A 
ENDBRANCH   9  12
ENDBRANCH   3   9
ENDBRANCH   1   8
BRANCH   2  17
ATOM     17  N   UNL     1      18.576  40.132  45.772  0.00  0.00    +0.000 N 
ATOM     18  C   UNL     1      18.235  41.304  45.114  0.00  0.00    +0.000 C 
ATOM     19  O   UNL     1      18.150  41.405  43.895  0.00  0.00    +0.000 OA
ATOM     20  H   UNL     1      18.535  40.087  46.755  0.00  0.00    +0.000 HD
BRANCH  18  21
ATOM     21  C   UNL     1      17.953  42.485  45.968  0.00  0.00    +0.000 A 
ATOM     22  C   UNL     1      16.667  43.038  45.955  0.00  0.00    +0.000 A 
ATOM     23  C   UNL     1      18.905  42.945  46.886  0.00  0.00    +0.000 A 
ATOM     24  C   UNL     1      16.322  44.025  46.882  0.00  0.00    +0.000 A 
ATOM     25  C   UNL     1      18.548  43.921  47.821  0.00  0.00    +0.000 A 
ATOM     26  C   UNL     1      17.256  44.450  47.825  0.00  0.00    +0.000 A 
ENDBRANCH  18  21
ENDBRANCH   2  17
BRANCH   2  27
ATOM     27  C   UNL     1      17.998  37.915  44.678  0.00  0.00    +0.000 C 
ATOM     28  O   UNL     1      17.175  38.100  43.779  0.00  0.00    +0.000 OA
ATOM     29  N   UNL     1      18.096  36.739  45.385  0.00  0.00    +0.000 N 
ATOM     30  H   UNL     1      18.755  36.724  46.116  0.00  0.00    +0.000 HD
BRANCH  29  31
ATOM     31  C   UNL     1      17.348  35.533  45.180  0.00  0.00    +0.000 A 
ATOM     32  C   UNL     1      16.908  35.005  43.948  0.00  0.00    +0.000 A 
ATOM     33  C   UNL     1      17.046  34.794  46.333  0.00  0.00    +0.000 A 
ATOM     34  C   UNL     1      16.176  33.814  43.882  0.00  0.00    +0.000 A 
ATOM     35  C   UNL     1      16.297  33.607  46.269  0.00  0.00    +0.000 A 
ATOM     36  C   UNL     1      15.857  33.118  45.042  0.00  0.00    +0.000 A 
BRANCH  32  37
ATOM     37  O   UNL     1      17.169  35.543  42.718  0.00  0.00    +0.000 OA
ATOM     38  H   UNL     1      16.912  35.084  41.942  0.00  0.00    +0.000 HD
ENDBRANCH  32  37
ENDBRANCH  29  31
ENDBRANCH   2  27
TORSDOF 8
ENDMDL
