MODEL 1
REMARK VINA RESULT:      -8.8      0.000      0.000
REMARK  Name = 322398
REMARK  6 active torsions:
REMARK  status: ('A' for Active; 'I' for Inactive)
REMARK    1  A    between atoms: C_3  and  O_5
REMARK    2  A    between atoms: O_5  and  C_8
REMARK    3  A    between atoms: C_14  and  C_15
REMARK    4  A    between atoms: CA_16  and  N_17
REMARK    5  A    between atoms: CA_16  and  C_18
REMARK    6  A    between atoms: C_19  and  C_23
REMARK                            x       y       z     vdW  Elec       q    Type
REMARK                         _______ _______ _______ _____ _____    ______ ____
ROOT
ATOM      1  C   UNL     1      22.012  41.324  47.063  0.00  0.00    +0.000 A 
ATOM      2  C   UNL     1      21.501  42.562  46.682  0.00  0.00    +0.000 A 
ATOM      3  C   UNL     1      21.962  40.251  46.168  0.00  0.00    +0.000 A 
ATOM      4  C   UNL     1      20.717  42.651  45.526  0.00  0.00    +0.000 A 
ATOM      5  C   UNL     1      21.224  40.354  44.989  0.00  0.00    +0.000 A 
ATOM      6  C   UNL     1      20.530  41.535  44.704  0.00  0.00    +0.000 A 
ENDROOT
BRANCH   6   7
ATOM      7  C   UNL     1      19.490  41.518  43.670  0.00  0.00    +0.000 C 
ATOM      8  CA  UNL     1      18.300  40.897  43.680  0.00  0.00    +0.000 C 
BRANCH   8   9
ATOM      9  N   UNL     1      17.852  40.005  44.636  0.00  0.00    +0.000 N 
ATOM     10  C   UNL     1      17.355  40.388  45.861  0.00  0.00    +0.000 C 
ATOM     11  O   UNL     1      17.369  41.527  46.304  0.00  0.00    +0.000 OA
ATOM     12  H   UNL     1      17.890  39.044  44.429  0.00  0.00    +0.000 HD
BRANCH  10  13
ATOM     13  C   UNL     1      16.952  39.250  46.739  0.00  0.00    +0.000 C 
ATOM     14  C   UNL     1      16.261  38.045  46.146  0.00  0.00    +0.000 C 
ATOM     15  C   UNL     1      15.480  39.014  46.984  0.00  0.00    +0.000 C 
ENDBRANCH  10  13
ENDBRANCH   8   9
BRANCH   8  16
ATOM     16  C   UNL     1      17.368  41.250  42.559  0.00  0.00    +0.000 C 
ATOM     17  O   UNL     1      16.309  40.699  42.314  0.00  0.00    +0.000 OA
ATOM     18  OXT UNL     1      17.865  42.275  41.824  0.00  0.00    +0.000 OA
ENDBRANCH   8  16
ENDBRANCH   6   7
BRANCH   1  19
ATOM     19  O   UNL     1      22.567  41.035  48.283  0.00  0.00    +0.000 OA
BRANCH  19  22
ATOM     20  I   UNL     1      25.570  40.622  46.324  0.00  0.00    +0.000 I 
ATOM     21  C   UNL     1      25.045  41.493  48.175  0.00  0.00    +0.000 A 
ATOM     22  C   UNL     1      23.752  41.594  48.711  0.00  0.00    +0.000 A 
ATOM     23  C   UNL     1      26.117  42.154  48.807  0.00  0.00    +0.000 A 
ATOM     24  C   UNL     1      23.546  42.489  49.778  0.00  0.00    +0.000 A 
ATOM     25  C   UNL     1      25.894  43.012  49.883  0.00  0.00    +0.000 A 
ATOM     26  C   UNL     1      24.600  43.208  50.345  0.00  0.00    +0.000 A 
ENDBRANCH  19  22
ENDBRANCH   1  19
TORSDOF 6
ENDMDL
MODEL 2
REMARK VINA RESULT:      -8.0      2.592      7.512
REMARK  Name = 322398
REMARK  6 active torsions:
REMARK  status: ('A' for Active; 'I' for Inactive)
REMARK    1  A    between atoms: C_3  and  O_5
REMARK    2  A    between atoms: O_5  and  C_8
REMARK    3  A    between atoms: C_14  and  C_15
REMARK    4  A    between atoms: CA_16  and  N_17
REMARK    5  A    between atoms: CA_16  and  C_18
REMARK    6  A    between atoms: C_19  and  C_23
REMARK                            x       y       z     vdW  Elec       q    Type
REMARK                         _______ _______ _______ _____ _____    ______ ____
ROOT
ATOM      1  C   UNL     1      18.810  42.255  46.158  0.00  0.00    +0.000 A 
ATOM      2  C   UNL     1      19.996  42.547  45.491  0.00  0.00    +0.000 A 
ATOM      3  C   UNL     1      18.756  42.363  47.551  0.00  0.00    +0.000 A 
ATOM      4  C   UNL     1      21.178  42.688  46.228  0.00  0.00    +0.000 A 
ATOM      5  C   UNL     1      19.925  42.558  48.286  0.00  0.00    +0.000 A 
ATOM      6  C   UNL     1      21.155  42.640  47.626  0.00  0.00    +0.000 A 
ENDROOT
BRANCH   6   7
ATOM      7  C   UNL     1      22.391  42.487  48.401  0.00  0.00    +0.000 C 
ATOM      8  CA  UNL     1      23.560  41.942  48.027  0.00  0.00    +0.000 C 
BRANCH   8   9
ATOM      9  N   UNL     1      23.807  41.269  46.845  0.00  0.00    +0.000 N 
ATOM     10  C   UNL     1      23.620  39.915  46.687  0.00  0.00    +0.000 C 
ATOM     11  O   UNL     1      23.346  39.131  47.583  0.00  0.00    +0.000 OA
ATOM     12  H   UNL     1      24.134  41.787  46.075  0.00  0.00    +0.000 HD
BRANCH  10  13
ATOM     13  C   UNL     1      23.973  39.404  45.330  0.00  0.00    +0.000 C 
ATOM     14  C   UNL     1      23.819  40.298  44.121  0.00  0.00    +0.000 C 
ATOM     15  C   UNL     1      22.859  39.164  44.337  0.00  0.00    +0.000 C 
ENDBRANCH  10  13
ENDBRANCH   8   9
BRANCH   8  16
ATOM     16  C   UNL     1      24.704  42.129  48.980  0.00  0.00    +0.000 C 
ATOM     17  O   UNL     1      25.883  41.981  48.713  0.00  0.00    +0.000 OA
ATOM     18  OXT UNL     1      24.254  42.480  50.210  0.00  0.00    +0.000 OA
ENDBRANCH   8  16
ENDBRANCH   6   7
BRANCH   1  19
ATOM     19  O   UNL     1      17.647  41.837  45.564  0.00  0.00    +0.000 OA
BRANCH  19  22
ATOM     20  I   UNL     1      19.313  39.323  43.581  0.00  0.00    +0.000 I 
ATOM     21  C   UNL     1      17.643  39.412  44.871  0.00  0.00    +0.000 A 
ATOM     22  C   UNL     1      17.218  40.528  45.608  0.00  0.00    +0.000 A 
ATOM     23  C   UNL     1      17.035  38.160  45.088  0.00  0.00    +0.000 A 
ATOM     24  C   UNL     1      16.303  40.319  46.658  0.00  0.00    +0.000 A 
ATOM     25  C   UNL     1      16.108  37.982  46.113  0.00  0.00    +0.000 A 
ATOM     26  C   UNL     1      15.769  39.057  46.923  0.00  0.00    +0.000 A 
ENDBRANCH  19  22
ENDBRANCH   1  19
TORSDOF 6
ENDMDL
MODEL 3
REMARK VINA RESULT:      -7.8      3.036      7.607
REMARK  Name = 322398
REMARK  6 active torsions:
REMARK  status: ('A' for Active; 'I' for Inactive)
REMARK    1  A    between atoms: C_3  and  O_5
REMARK    2  A    between atoms: O_5  and  C_8
REMARK    3  A    between atoms: C_14  and  C_15
REMARK    4  A    between atoms: CA_16  and  N_17
REMARK    5  A    between atoms: CA_16  and  C_18
REMARK    6  A    between atoms: C_19  and  C_23
REMARK                            x       y       z     vdW  Elec       q    Type
REMARK                         _______ _______ _______ _____ _____    ______ ____
ROOT
ATOM      1  C   UNL     1      18.863  42.702  46.598  0.00  0.00    +0.000 A 
ATOM      2  C   UNL     1      19.937  42.986  45.760  0.00  0.00    +0.000 A 
ATOM      3  C   UNL     1      19.067  42.623  47.979  0.00  0.00    +0.000 A 
ATOM      4  C   UNL     1      21.238  42.929  46.272  0.00  0.00    +0.000 A 
ATOM      5  C   UNL     1      20.362  42.619  48.499  0.00  0.00    +0.000 A 
ATOM      6  C   UNL     1      21.458  42.691  47.632  0.00  0.00    +0.000 A 
ENDROOT
BRANCH   6   7
ATOM      7  C   UNL     1      22.789  42.333  48.136  0.00  0.00    +0.000 C 
ATOM      8  CA  UNL     1      23.773  41.662  47.517  0.00  0.00    +0.000 C 
BRANCH   8   9
ATOM      9  N   UNL     1      23.686  41.031  46.290  0.00  0.00    +0.000 N 
ATOM     10  C   UNL     1      23.407  39.691  46.142  0.00  0.00    +0.000 C 
ATOM     11  O   UNL     1      23.334  38.880  47.052  0.00  0.00    +0.000 OA
ATOM     12  H   UNL     1      23.831  41.569  45.479  0.00  0.00    +0.000 HD
BRANCH  10  13
ATOM     13  C   UNL     1      23.386  39.226  44.724  0.00  0.00    +0.000 C 
ATOM     14  C   UNL     1      22.999  40.181  43.619  0.00  0.00    +0.000 C 
ATOM     15  C   UNL     1      22.051  39.092  44.029  0.00  0.00    +0.000 C 
ENDBRANCH  10  13
ENDBRANCH   8   9
BRANCH   8  16
ATOM     16  C   UNL     1      25.097  41.643  48.223  0.00  0.00    +0.000 C 
ATOM     17  O   UNL     1      26.113  41.109  47.815  0.00  0.00    +0.000 OA
ATOM     18  OXT UNL     1      25.021  42.299  49.407  0.00  0.00    +0.000 OA
ENDBRANCH   8  16
ENDBRANCH   6   7
BRANCH   1  19
ATOM     19  O   UNL     1      17.576  42.466  46.189  0.00  0.00    +0.000 OA
BRANCH  19  22
ATOM     20  I   UNL     1      16.395  39.110  46.799  0.00  0.00    +0.000 I 
ATOM     21  C   UNL     1      16.892  40.287  45.117  0.00  0.00    +0.000 A 
ATOM     22  C   UNL     1      17.274  41.638  45.130  0.00  0.00    +0.000 A 
ATOM     23  C   UNL     1      16.645  39.643  43.889  0.00  0.00    +0.000 A 
ATOM     24  C   UNL     1      17.241  42.346  43.913  0.00  0.00    +0.000 A 
ATOM     25  C   UNL     1      16.648  40.358  42.692  0.00  0.00    +0.000 A 
ATOM     26  C   UNL     1      16.911  41.721  42.710  0.00  0.00    +0.000 A 
ENDBRANCH  19  22
ENDBRANCH   1  19
TORSDOF 6
ENDMDL
MODEL 4
REMARK VINA RESULT:      -7.5      1.249      1.696
REMARK  Name = 322398
REMARK  6 active torsions:
REMARK  status: ('A' for Active; 'I' for Inactive)
REMARK    1  A    between atoms: C_3  and  O_5
REMARK    2  A    between atoms: O_5  and  C_8
REMARK    3  A    between atoms: C_14  and  C_15
REMARK    4  A    between atoms: CA_16  and  N_17
REMARK    5  A    between atoms: CA_16  and  C_18
REMARK    6  A    between atoms: C_19  and  C_23
REMARK                            x       y       z     vdW  Elec       q    Type
REMARK                         _______ _______ _______ _____ _____    ______ ____
ROOT
ATOM      1  C   UNL     1      22.048  41.554  46.755  0.00  0.00    +0.000 A 
ATOM      2  C   UNL     1      21.164  42.620  46.620  0.00  0.00    +0.000 A 
ATOM      3  C   UNL     1      22.244  40.679  45.682  0.00  0.00    +0.000 A 
ATOM      4  C   UNL     1      20.295  42.653  45.524  0.00  0.00    +0.000 A 
ATOM      5  C   UNL     1      21.413  40.744  44.563  0.00  0.00    +0.000 A 
ATOM      6  C   UNL     1      20.379  41.685  44.518  0.00  0.00    +0.000 A 
ENDROOT
BRANCH   6   7
ATOM      7  C   UNL     1      19.308  41.520  43.530  0.00  0.00    +0.000 C 
ATOM      8  CA  UNL     1      18.149  40.853  43.644  0.00  0.00    +0.000 C 
BRANCH   8   9
ATOM      9  N   UNL     1      17.774  40.043  44.699  0.00  0.00    +0.000 N 
ATOM     10  C   UNL     1      17.136  40.508  45.827  0.00  0.00    +0.000 C 
ATOM     11  O   UNL     1      16.944  41.685  46.094  0.00  0.00    +0.000 OA
ATOM     12  H   UNL     1      17.973  39.081  44.640  0.00  0.00    +0.000 HD
BRANCH  10  13
ATOM     13  C   UNL     1      16.848  39.454  46.844  0.00  0.00    +0.000 C 
ATOM     14  C   UNL     1      16.477  38.058  46.402  0.00  0.00    +0.000 C 
ATOM     15  C   UNL     1      15.428  38.958  46.986  0.00  0.00    +0.000 C 
ENDBRANCH  10  13
ENDBRANCH   8   9
BRANCH   8  16
ATOM     16  C   UNL     1      17.166  41.051  42.528  0.00  0.00    +0.000 C 
ATOM     17  O   UNL     1      16.140  40.416  42.363  0.00  0.00    +0.000 OA
ATOM     18  OXT UNL     1      17.575  42.042  41.697  0.00  0.00    +0.000 OA
ENDBRANCH   8  16
ENDBRANCH   6   7
BRANCH   1  19
ATOM     19  O   UNL     1      22.763  41.252  47.885  0.00  0.00    +0.000 OA
BRANCH  19  22
ATOM     20  I   UNL     1      24.146  43.008  50.720  0.00  0.00    +0.000 I 
ATOM     21  C   UNL     1      24.872  42.170  48.922  0.00  0.00    +0.000 A 
ATOM     22  C   UNL     1      24.124  41.450  47.977  0.00  0.00    +0.000 A 
ATOM     23  C   UNL     1      26.273  42.240  48.797  0.00  0.00    +0.000 A 
ATOM     24  C   UNL     1      24.823  40.687  47.022  0.00  0.00    +0.000 A 
ATOM     25  C   UNL     1      26.943  41.500  47.824  0.00  0.00    +0.000 A 
ATOM     26  C   UNL     1      26.218  40.693  46.958  0.00  0.00    +0.000 A 
ENDBRANCH  19  22
ENDBRANCH   1  19
TORSDOF 6
ENDMDL
MODEL 5
REMARK VINA RESULT:      -7.5      2.998      7.238
REMARK  Name = 322398
REMARK  6 active torsions:
REMARK  status: ('A' for Active; 'I' for Inactive)
REMARK    1  A    between atoms: C_3  and  O_5
REMARK    2  A    between atoms: O_5  and  C_8
REMARK    3  A    between atoms: C_14  and  C_15
REMARK    4  A    between atoms: CA_16  and  N_17
REMARK    5  A    between atoms: CA_16  and  C_18
REMARK    6  A    between atoms: C_19  and  C_23
REMARK                            x       y       z     vdW  Elec       q    Type
REMARK                         _______ _______ _______ _____ _____    ______ ____
ROOT
ATOM      1  C   UNL     1      20.219  39.575  43.586  0.00  0.00    +0.000 A 
ATOM      2  C   UNL     1      21.149  38.566  43.821  0.00  0.00    +0.000 A 
ATOM      3  C   UNL     1      20.628  40.911  43.611  0.00  0.00    +0.000 A 
ATOM      4  C   UNL     1      22.407  38.903  44.334  0.00  0.00    +0.000 A 
ATOM      5  C   UNL     1      21.902  41.247  44.071  0.00  0.00    +0.000 A 
ATOM      6  C   UNL     1      22.769  40.242  44.512  0.00  0.00    +0.000 A 
ENDROOT
BRANCH   6   7
ATOM      7  C   UNL     1      23.941  40.613  45.312  0.00  0.00    +0.000 C 
ATOM      8  CA  UNL     1      24.004  41.386  46.408  0.00  0.00    +0.000 C 
BRANCH   8   9
ATOM      9  N   UNL     1      22.969  42.127  46.946  0.00  0.00    +0.000 N 
ATOM     10  C   UNL     1      21.843  41.568  47.506  0.00  0.00    +0.000 C 
ATOM     11  O   UNL     1      21.557  40.380  47.481  0.00  0.00    +0.000 OA
ATOM     12  H   UNL     1      23.043  43.108  46.928  0.00  0.00    +0.000 HD
BRANCH  10  13
ATOM     13  C   UNL     1      20.849  42.565  48.002  0.00  0.00    +0.000 C 
ATOM     14  C   UNL     1      19.371  42.261  47.931  0.00  0.00    +0.000 C 
ATOM     15  C   UNL     1      19.971  43.271  46.996  0.00  0.00    +0.000 C 
ENDBRANCH  10  13
ENDBRANCH   8   9
BRANCH   8  16
ATOM     16  C   UNL     1      25.323  41.400  47.124  0.00  0.00    +0.000 C 
ATOM     17  O   UNL     1      26.267  40.667  46.890  0.00  0.00    +0.000 OA
ATOM     18  OXT UNL     1      25.333  42.345  48.096  0.00  0.00    +0.000 OA
ENDBRANCH   8  16
ENDBRANCH   6   7
BRANCH   1  19
ATOM     19  O   UNL     1      18.884  39.383  43.338  0.00  0.00    +0.000 OA
BRANCH  19  22
ATOM     20  I   UNL     1      17.057  42.231  44.595  0.00  0.00    +0.000 I 
ATOM     21  C   UNL     1      17.204  40.173  45.047  0.00  0.00    +0.000 A 
ATOM     22  C   UNL     1      17.958  39.218  44.346  0.00  0.00    +0.000 A 
ATOM     23  C   UNL     1      16.319  39.757  46.060  0.00  0.00    +0.000 A 
ATOM     24  C   UNL     1      17.680  37.857  44.576  0.00  0.00    +0.000 A 
ATOM     25  C   UNL     1      16.081  38.403  46.291  0.00  0.00    +0.000 A 
ATOM     26  C   UNL     1      16.737  37.452  45.521  0.00  0.00    +0.000 A 
ENDBRANCH  19  22
ENDBRANCH   1  19
TORSDOF 6
ENDMDL
MODEL 6
REMARK VINA RESULT:      -7.0      3.147      7.774
REMARK  Name = 322398
REMARK  6 active torsions:
REMARK  status: ('A' for Active; 'I' for Inactive)
REMARK    1  A    between atoms: C_3  and  O_5
REMARK    2  A    between atoms: O_5  and  C_8
REMARK    3  A    between atoms: C_14  and  C_15
REMARK    4  A    between atoms: CA_16  and  N_17
REMARK    5  A    between atoms: CA_16  and  C_18
REMARK    6  A    between atoms: C_19  and  C_23
REMARK                            x       y       z     vdW  Elec       q    Type
REMARK                         _______ _______ _______ _____ _____    ______ ____
ROOT
ATOM      1  C   UNL     1      20.143  41.065  45.604  0.00  0.00    +0.000 A 
ATOM      2  C   UNL     1      20.765  42.243  45.199  0.00  0.00    +0.000 A 
ATOM      3  C   UNL     1      20.349  40.587  46.902  0.00  0.00    +0.000 A 
ATOM      4  C   UNL     1      21.783  42.786  45.991  0.00  0.00    +0.000 A 
ATOM      5  C   UNL     1      21.326  41.161  47.715  0.00  0.00    +0.000 A 
ATOM      6  C   UNL     1      22.105  42.216  47.227  0.00  0.00    +0.000 A 
ENDROOT
BRANCH   6   7
ATOM      7  C   UNL     1      23.342  42.572  47.929  0.00  0.00    +0.000 C 
ATOM      8  CA  UNL     1      24.469  41.856  48.070  0.00  0.00    +0.000 C 
BRANCH   8   9
ATOM      9  N   UNL     1      24.654  40.540  47.689  0.00  0.00    +0.000 N 
ATOM     10  C   UNL     1      24.751  40.133  46.378  0.00  0.00    +0.000 C 
ATOM     11  O   UNL     1      24.559  40.843  45.403  0.00  0.00    +0.000 OA
ATOM     12  H   UNL     1      24.719  39.857  48.395  0.00  0.00    +0.000 HD
BRANCH  10  13
ATOM     13  C   UNL     1      24.926  38.661  46.207  0.00  0.00    +0.000 C 
ATOM     14  C   UNL     1      24.035  37.898  45.256  0.00  0.00    +0.000 C 
ATOM     15  C   UNL     1      23.852  37.740  46.737  0.00  0.00    +0.000 C 
ENDBRANCH  10  13
ENDBRANCH   8   9
BRANCH   8  16
ATOM     16  C   UNL     1      25.639  42.585  48.663  0.00  0.00    +0.000 C 
ATOM     17  O   UNL     1      25.743  42.938  49.824  0.00  0.00    +0.000 OA
ATOM     18  OXT UNL     1      26.587  42.819  47.722  0.00  0.00    +0.000 OA
ENDBRANCH   8  16
ENDBRANCH   6   7
BRANCH   1  19
ATOM     19  O   UNL     1      19.329  40.287  44.822  0.00  0.00    +0.000 OA
BRANCH  19  22
ATOM     20  I   UNL     1      16.784  42.274  46.437  0.00  0.00    +0.000 I 
ATOM     21  C   UNL     1      17.121  40.227  46.041  0.00  0.00    +0.000 A 
ATOM     22  C   UNL     1      18.188  39.685  45.308  0.00  0.00    +0.000 A 
ATOM     23  C   UNL     1      16.056  39.396  46.442  0.00  0.00    +0.000 A 
ATOM     24  C   UNL     1      18.076  38.354  44.862  0.00  0.00    +0.000 A 
ATOM     25  C   UNL     1      15.981  38.072  46.014  0.00  0.00    +0.000 A 
ATOM     26  C   UNL     1      16.976  37.561  45.192  0.00  0.00    +0.000 A 
ENDBRANCH  19  22
ENDBRANCH   1  19
TORSDOF 6
ENDMDL
MODEL 7
REMARK VINA RESULT:      -6.6      2.192      2.922
REMARK  Name = 322398
REMARK  6 active torsions:
REMARK  status: ('A' for Active; 'I' for Inactive)
REMARK    1  A    between atoms: C_3  and  O_5
REMARK    2  A    between atoms: O_5  and  C_8
REMARK    3  A    between atoms: C_14  and  C_15
REMARK    4  A    between atoms: CA_16  and  N_17
REMARK    5  A    between atoms: CA_16  and  C_18
REMARK    6  A    between atoms: C_19  and  C_23
REMARK                            x       y       z     vdW  Elec       q    Type
REMARK                         _______ _______ _______ _____ _____    ______ ____
ROOT
ATOM      1  C   UNL     1      23.481  40.112  44.764  0.00  0.00    +0.000 A 
ATOM      2  C   UNL     1      22.924  41.215  44.122  0.00  0.00    +0.000 A 
ATOM      3  C   UNL     1      22.871  38.860  44.640  0.00  0.00    +0.000 A 
ATOM      4  C   UNL     1      21.635  41.115  43.586  0.00  0.00    +0.000 A 
ATOM      5  C   UNL     1      21.608  38.749  44.057  0.00  0.00    +0.000 A 
ATOM      6  C   UNL     1      20.950  39.895  43.600  0.00  0.00    +0.000 A 
ENDROOT
BRANCH   6   7
ATOM      7  C   UNL     1      19.511  39.829  43.325  0.00  0.00    +0.000 C 
ATOM      8  CA  UNL     1      18.549  40.708  43.646  0.00  0.00    +0.000 C 
BRANCH   8   9
ATOM      9  N   UNL     1      18.696  41.826  44.445  0.00  0.00    +0.000 N 
ATOM     10  C   UNL     1      18.404  41.844  45.790  0.00  0.00    +0.000 C 
ATOM     11  O   UNL     1      17.865  40.938  46.407  0.00  0.00    +0.000 OA
ATOM     12  H   UNL     1      19.029  42.654  44.030  0.00  0.00    +0.000 HD
BRANCH  10  13
ATOM     13  C   UNL     1      18.620  43.168  46.444  0.00  0.00    +0.000 C 
ATOM     14  C   UNL     1      18.562  43.288  47.949  0.00  0.00    +0.000 C 
ATOM     15  C   UNL     1      17.445  43.843  47.113  0.00  0.00    +0.000 C 
ENDBRANCH  10  13
ENDBRANCH   8   9
BRANCH   8  16
ATOM     16  C   UNL     1      17.202  40.457  43.034  0.00  0.00    +0.000 C 
ATOM     17  O   UNL     1      16.722  41.067  42.095  0.00  0.00    +0.000 OA
ATOM     18  OXT UNL     1      16.561  39.449  43.677  0.00  0.00    +0.000 OA
ENDBRANCH   8  16
ENDBRANCH   6   7
BRANCH   1  19
ATOM     19  O   UNL     1      24.603  40.134  45.551  0.00  0.00    +0.000 OA
BRANCH  19  22
ATOM     20  I   UNL     1      21.634  40.807  47.489  0.00  0.00    +0.000 I 
ATOM     21  C   UNL     1      23.675  41.345  47.559  0.00  0.00    +0.000 A 
ATOM     22  C   UNL     1      24.688  40.884  46.704  0.00  0.00    +0.000 A 
ATOM     23  C   UNL     1      24.012  42.119  48.687  0.00  0.00    +0.000 A 
ATOM     24  C   UNL     1      26.025  41.079  47.097  0.00  0.00    +0.000 A 
ATOM     25  C   UNL     1      25.345  42.326  49.041  0.00  0.00    +0.000 A 
ATOM     26  C   UNL     1      26.353  41.773  48.263  0.00  0.00    +0.000 A 
ENDBRANCH  19  22
ENDBRANCH   1  19
TORSDOF 6
ENDMDL
MODEL 8
REMARK VINA RESULT:      -6.4      2.953      7.801
REMARK  Name = 322398
REMARK  6 active torsions:
REMARK  status: ('A' for Active; 'I' for Inactive)
REMARK    1  A    between atoms: C_3  and  O_5
REMARK    2  A    between atoms: O_5  and  C_8
REMARK    3  A    between atoms: C_14  and  C_15
REMARK    4  A    between atoms: CA_16  and  N_17
REMARK    5  A    between atoms: CA_16  and  C_18
REMARK    6  A    between atoms: C_19  and  C_23
REMARK                            x       y       z     vdW  Elec       q    Type
REMARK                         _______ _______ _______ _____ _____    ______ ____
ROOT
ATOM      1  C   UNL     1      19.071  42.136  46.203  0.00  0.00    +0.000 A 
ATOM      2  C   UNL     1      19.749  42.617  45.086  0.00  0.00    +0.000 A 
ATOM      3  C   UNL     1      19.794  41.731  47.329  0.00  0.00    +0.000 A 
ATOM      4  C   UNL     1      21.135  42.445  45.002  0.00  0.00    +0.000 A 
ATOM      5  C   UNL     1      21.183  41.610  47.265  0.00  0.00    +0.000 A 
ATOM      6  C   UNL     1      21.851  41.891  46.069  0.00  0.00    +0.000 A 
ENDROOT
BRANCH   6   7
ATOM      7  C   UNL     1      23.232  41.430  45.899  0.00  0.00    +0.000 C 
ATOM      8  CA  UNL     1      24.248  41.463  46.777  0.00  0.00    +0.000 C 
BRANCH   8   9
ATOM      9  N   UNL     1      24.240  42.083  48.012  0.00  0.00    +0.000 N 
ATOM     10  C   UNL     1      24.083  41.408  49.202  0.00  0.00    +0.000 C 
ATOM     11  O   UNL     1      23.806  40.223  49.310  0.00  0.00    +0.000 OA
ATOM     12  H   UNL     1      24.352  43.060  48.042  0.00  0.00    +0.000 HD
BRANCH  10  13
ATOM     13  C   UNL     1      24.085  42.288  50.407  0.00  0.00    +0.000 C 
ATOM     14  C   UNL     1      24.212  43.785  50.252  0.00  0.00    +0.000 C 
ATOM     15  C   UNL     1      25.368  42.991  50.786  0.00  0.00    +0.000 C 
ENDBRANCH  10  13
ENDBRANCH   8   9
BRANCH   8  16
ATOM     16  C   UNL     1      25.485  40.716  46.376  0.00  0.00    +0.000 C 
ATOM     17  O   UNL     1      25.540  39.820  45.552  0.00  0.00    +0.000 OA
ATOM     18  OXT UNL     1      26.563  41.163  47.067  0.00  0.00    +0.000 OA
ENDBRANCH   8  16
ENDBRANCH   6   7
BRANCH   1  19
ATOM     19  O   UNL     1      17.711  41.998  46.308  0.00  0.00    +0.000 OA
BRANCH  19  22
ATOM     20  I   UNL     1      17.233  40.723  42.965  0.00  0.00    +0.000 I 
ATOM     21  C   UNL     1      16.693  40.150  44.925  0.00  0.00    +0.000 A 
ATOM     22  C   UNL     1      17.069  40.794  46.115  0.00  0.00    +0.000 A 
ATOM     23  C   UNL     1      16.026  38.911  44.983  0.00  0.00    +0.000 A 
ATOM     24  C   UNL     1      16.905  40.095  47.326  0.00  0.00    +0.000 A 
ATOM     25  C   UNL     1      15.846  38.250  46.198  0.00  0.00    +0.000 A 
ATOM     26  C   UNL     1      16.320  38.828  47.367  0.00  0.00    +0.000 A 
ENDBRANCH  19  22
ENDBRANCH   1  19
TORSDOF 6
ENDMDL
MODEL 9
REMARK VINA RESULT:      -6.0      1.902      2.619
REMARK  Name = 322398
REMARK  6 active torsions:
REMARK  status: ('A' for Active; 'I' for Inactive)
REMARK    1  A    between atoms: C_3  and  O_5
REMARK    2  A    between atoms: O_5  and  C_8
REMARK    3  A    between atoms: C_14  and  C_15
REMARK    4  A    between atoms: CA_16  and  N_17
REMARK    5  A    between atoms: CA_16  and  C_18
REMARK    6  A    between atoms: C_19  and  C_23
REMARK                            x       y       z     vdW  Elec       q    Type
REMARK                         _______ _______ _______ _____ _____    ______ ____
ROOT
ATOM      1  C   UNL     1      22.061  41.469  46.808  0.00  0.00    +0.000 A 
ATOM      2  C   UNL     1      22.059  42.231  45.643  0.00  0.00    +0.000 A 
ATOM      3  C   UNL     1      21.362  40.258  46.843  0.00  0.00    +0.000 A 
ATOM      4  C   UNL     1      21.155  41.915  44.622  0.00  0.00    +0.000 A 
ATOM      5  C   UNL     1      20.501  39.914  45.801  0.00  0.00    +0.000 A 
ATOM      6  C   UNL     1      20.334  40.787  44.720  0.00  0.00    +0.000 A 
ENDROOT
BRANCH   6   7
ATOM      7  C   UNL     1      19.187  40.601  43.825  0.00  0.00    +0.000 C 
ATOM      8  CA  UNL     1      17.993  41.214  43.844  0.00  0.00    +0.000 C 
BRANCH   8   9
ATOM      9  N   UNL     1      17.532  42.075  44.822  0.00  0.00    +0.000 N 
ATOM     10  C   UNL     1      17.082  41.655  46.054  0.00  0.00    +0.000 C 
ATOM     11  O   UNL     1      16.913  40.492  46.385  0.00  0.00    +0.000 OA
ATOM     12  H   UNL     1      17.525  43.039  44.627  0.00  0.00    +0.000 HD
BRANCH  10  13
ATOM     13  C   UNL     1      16.612  42.761  46.940  0.00  0.00    +0.000 C 
ATOM     14  C   UNL     1      16.779  44.199  46.510  0.00  0.00    +0.000 C 
ATOM     15  C   UNL     1      17.644  43.642  47.604  0.00  0.00    +0.000 C 
ENDBRANCH  10  13
ENDBRANCH   8   9
BRANCH   8  16
ATOM     16  C   UNL     1      17.107  40.959  42.660  0.00  0.00    +0.000 C 
ATOM     17  O   UNL     1      17.092  41.608  41.629  0.00  0.00    +0.000 OA
ATOM     18  OXT UNL     1      16.296  39.896  42.886  0.00  0.00    +0.000 OA
ENDBRANCH   8  16
ENDBRANCH   6   7
BRANCH   1  19
ATOM     19  O   UNL     1      22.692  41.807  47.977  0.00  0.00    +0.000 OA
BRANCH  19  22
ATOM     20  I   UNL     1      24.221  43.081  50.988  0.00  0.00    +0.000 I 
ATOM     21  C   UNL     1      24.876  42.328  49.127  0.00  0.00    +0.000 A 
ATOM     22  C   UNL     1      24.065  41.809  48.106  0.00  0.00    +0.000 A 
ATOM     23  C   UNL     1      26.277  42.219  49.028  0.00  0.00    +0.000 A 
ATOM     24  C   UNL     1      24.681  41.053  47.091  0.00  0.00    +0.000 A 
ATOM     25  C   UNL     1      26.868  41.491  47.997  0.00  0.00    +0.000 A 
ATOM     26  C   UNL     1      26.065  40.876  47.046  0.00  0.00    +0.000 A 
ENDBRANCH  19  22
ENDBRANCH   1  19
TORSDOF 6
ENDMDL
