MODEL 1
REMARK VINA RESULT:       0.4      0.000      0.000
REMARK  Name = 324498
REMARK  8 active torsions:
REMARK  status: ('A' for Active; 'I' for Inactive)
REMARK    1  A    between atoms: C_3  and  O_5
REMARK    2  A    between atoms: O_5  and  C_8
REMARK    3  A    between atoms: C_14  and  C_15
REMARK    4  A    between atoms: C_16  and  N_17
REMARK    5  A    between atoms: C_16  and  C_18
REMARK    6  A    between atoms: C_19  and  C_23
REMARK    7  A    between atoms: N_21  and  C_24
REMARK    8  A    between atoms: C_31  and  O_34
REMARK                            x       y       z     vdW  Elec       q    Type
REMARK                         _______ _______ _______ _____ _____    ______ ____
ROOT
ATOM      1  C   UNL     1      21.487  39.688  43.714  0.00  0.00    +0.000 C 
ATOM      2  C   UNL     1      20.309  40.170  44.151  0.00  0.00    +0.000 C 
ENDROOT
BRANCH   1   8
ATOM      3  C   UNL     1      25.002  40.058  46.051  0.00  0.00    +0.000 A 
ATOM      4  C   UNL     1      24.634  41.092  45.190  0.00  0.00    +0.000 A 
ATOM      5  C   UNL     1      24.383  38.811  45.937  0.00  0.00    +0.000 A 
ATOM      6  C   UNL     1      23.546  40.926  44.321  0.00  0.00    +0.000 A 
ATOM      7  C   UNL     1      23.284  38.650  45.086  0.00  0.00    +0.000 A 
ATOM      8  C   UNL     1      22.830  39.725  44.309  0.00  0.00    +0.000 A 
BRANCH   3   9
ATOM      9  O   UNL     1      25.971  40.330  46.995  0.00  0.00    +0.000 OA
BRANCH   9  12
ATOM     10 BR   UNL     1      23.391  39.590  48.529  0.00  0.00    +0.000 Br
ATOM     11  C   UNL     1      24.529  41.087  48.746  0.00  0.00    +0.000 A 
ATOM     12  C   UNL     1      25.687  41.261  47.982  0.00  0.00    +0.000 A 
ATOM     13  C   UNL     1      24.180  42.040  49.718  0.00  0.00    +0.000 A 
ATOM     14  C   UNL     1      26.536  42.341  48.272  0.00  0.00    +0.000 A 
ATOM     15  C   UNL     1      24.999  43.147  49.951  0.00  0.00    +0.000 A 
ATOM     16  C   UNL     1      26.184  43.286  49.236  0.00  0.00    +0.000 A 
ENDBRANCH   9  12
ENDBRANCH   3   9
ENDBRANCH   1   8
BRANCH   2  17
ATOM     17  N   UNL     1      20.121  40.714  45.412  0.00  0.00    +0.000 N 
ATOM     18  C   UNL     1      19.900  42.074  45.552  0.00  0.00    +0.000 C 
ATOM     19  O   UNL     1      19.755  42.845  44.608  0.00  0.00    +0.000 OA
ATOM     20  H   UNL     1      20.145  40.135  46.207  0.00  0.00    +0.000 HD
BRANCH  18  21
ATOM     21  C   UNL     1      19.822  42.595  46.942  0.00  0.00    +0.000 A 
ATOM     22  C   UNL     1      18.669  43.283  47.340  0.00  0.00    +0.000 A 
ATOM     23  C   UNL     1      20.807  42.276  47.885  0.00  0.00    +0.000 A 
ATOM     24  C   UNL     1      18.487  43.629  48.680  0.00  0.00    +0.000 A 
ATOM     25  C   UNL     1      20.612  42.611  49.228  0.00  0.00    +0.000 A 
ATOM     26  C   UNL     1      19.450  43.276  49.627  0.00  0.00    +0.000 A 
ENDBRANCH  18  21
ENDBRANCH   2  17
BRANCH   2  27
ATOM     27  C   UNL     1      19.135  39.974  43.191  0.00  0.00    +0.000 C 
ATOM     28  O   UNL     1      18.858  38.840  42.801  0.00  0.00    +0.000 OA
ATOM     29  N   UNL     1      18.457  41.120  42.823  0.00  0.00    +0.000 N 
ATOM     30  H   UNL     1      18.798  41.972  43.178  0.00  0.00    +0.000 HD
BRANCH  29  31
ATOM     31  C   UNL     1      17.314  41.185  41.980  0.00  0.00    +0.000 A 
ATOM     32  C   UNL     1      17.309  41.805  40.725  0.00  0.00    +0.000 A 
ATOM     33  C   UNL     1      16.130  40.587  42.431  0.00  0.00    +0.000 A 
ATOM     34  C   UNL     1      16.137  41.845  39.961  0.00  0.00    +0.000 A 
ATOM     35  C   UNL     1      14.958  40.642  41.665  0.00  0.00    +0.000 A 
ATOM     36  C   UNL     1      14.962  41.274  40.427  0.00  0.00    +0.000 A 
BRANCH  34  37
ATOM     37  O   UNL     1      16.112  42.441  38.732  0.00  0.00    +0.000 OA
ATOM     38  H   UNL     1      16.825  42.982  38.459  0.00  0.00    +0.000 HD
ENDBRANCH  34  37
ENDBRANCH  29  31
ENDBRANCH   2  27
TORSDOF 8
ENDMDL
MODEL 2
REMARK VINA RESULT:       0.4      3.787      5.540
REMARK  Name = 324498
REMARK  8 active torsions:
REMARK  status: ('A' for Active; 'I' for Inactive)
REMARK    1  A    between atoms: C_3  and  O_5
REMARK    2  A    between atoms: O_5  and  C_8
REMARK    3  A    between atoms: C_14  and  C_15
REMARK    4  A    between atoms: C_16  and  N_17
REMARK    5  A    between atoms: C_16  and  C_18
REMARK    6  A    between atoms: C_19  and  C_23
REMARK    7  A    between atoms: N_21  and  C_24
REMARK    8  A    between atoms: C_31  and  O_34
REMARK                            x       y       z     vdW  Elec       q    Type
REMARK                         _______ _______ _______ _____ _____    ______ ____
ROOT
ATOM      1  C   UNL     1      22.451  40.682  44.895  0.00  0.00    +0.000 C 
ATOM      2  C   UNL     1      22.001  41.239  46.034  0.00  0.00    +0.000 C 
ENDROOT
BRANCH   1   8
ATOM      3  C   UNL     1      26.187  41.595  43.116  0.00  0.00    +0.000 A 
ATOM      4  C   UNL     1      25.058  41.443  42.311  0.00  0.00    +0.000 A 
ATOM      5  C   UNL     1      26.146  41.177  44.449  0.00  0.00    +0.000 A 
ATOM      6  C   UNL     1      23.848  41.016  42.875  0.00  0.00    +0.000 A 
ATOM      7  C   UNL     1      24.933  40.771  45.018  0.00  0.00    +0.000 A 
ATOM      8  C   UNL     1      23.766  40.737  44.243  0.00  0.00    +0.000 A 
BRANCH   3   9
ATOM      9  O   UNL     1      27.304  42.170  42.546  0.00  0.00    +0.000 OA
BRANCH   9  12
ATOM     10 BR   UNL     1      27.045  43.650  39.844  0.00  0.00    +0.000 Br
ATOM     11  C   UNL     1      27.442  44.344  41.560  0.00  0.00    +0.000 A 
ATOM     12  C   UNL     1      27.494  43.534  42.698  0.00  0.00    +0.000 A 
ATOM     13  C   UNL     1      27.684  45.724  41.668  0.00  0.00    +0.000 A 
ATOM     14  C   UNL     1      27.690  44.137  43.952  0.00  0.00    +0.000 A 
ATOM     15  C   UNL     1      27.945  46.301  42.912  0.00  0.00    +0.000 A 
ATOM     16  C   UNL     1      27.932  45.507  44.053  0.00  0.00    +0.000 A 
ENDBRANCH   9  12
ENDBRANCH   3   9
ENDBRANCH   1   8
BRANCH   2  17
ATOM     17  N   UNL     1      22.814  41.907  46.937  0.00  0.00    +0.000 N 
ATOM     18  C   UNL     1      23.389  41.216  47.991  0.00  0.00    +0.000 C 
ATOM     19  O   UNL     1      23.313  40.001  48.137  0.00  0.00    +0.000 OA
ATOM     20  H   UNL     1      22.981  42.871  46.829  0.00  0.00    +0.000 HD
BRANCH  18  21
ATOM     21  C   UNL     1      24.153  42.026  48.977  0.00  0.00    +0.000 A 
ATOM     22  C   UNL     1      23.496  42.483  50.126  0.00  0.00    +0.000 A 
ATOM     23  C   UNL     1      25.536  42.201  48.846  0.00  0.00    +0.000 A 
ATOM     24  C   UNL     1      24.220  43.091  51.153  0.00  0.00    +0.000 A 
ATOM     25  C   UNL     1      26.259  42.796  49.885  0.00  0.00    +0.000 A 
ATOM     26  C   UNL     1      25.604  43.230  51.040  0.00  0.00    +0.000 A 
ENDBRANCH  18  21
ENDBRANCH   2  17
BRANCH   2  27
ATOM     27  C   UNL     1      20.523  40.986  46.337  0.00  0.00    +0.000 C 
ATOM     28  O   UNL     1      19.912  41.778  47.055  0.00  0.00    +0.000 OA
ATOM     29  N   UNL     1      19.973  39.855  45.768  0.00  0.00    +0.000 N 
ATOM     30  H   UNL     1      20.578  39.284  45.240  0.00  0.00    +0.000 HD
BRANCH  29  31
ATOM     31  C   UNL     1      18.619  39.436  45.871  0.00  0.00    +0.000 A 
ATOM     32  C   UNL     1      18.140  38.224  45.359  0.00  0.00    +0.000 A 
ATOM     33  C   UNL     1      17.718  40.282  46.530  0.00  0.00    +0.000 A 
ATOM     34  C   UNL     1      16.786  37.891  45.484  0.00  0.00    +0.000 A 
ATOM     35  C   UNL     1      16.362  39.946  46.641  0.00  0.00    +0.000 A 
ATOM     36  C   UNL     1      15.895  38.747  46.114  0.00  0.00    +0.000 A 
BRANCH  34  37
ATOM     37  O   UNL     1      16.299  36.712  44.996  0.00  0.00    +0.000 OA
ATOM     38  H   UNL     1      16.777  36.242  44.342  0.00  0.00    +0.000 HD
ENDBRANCH  34  37
ENDBRANCH  29  31
ENDBRANCH   2  27
TORSDOF 8
ENDMDL
MODEL 3
REMARK VINA RESULT:       0.5      1.554      2.167
REMARK  Name = 324498
REMARK  8 active torsions:
REMARK  status: ('A' for Active; 'I' for Inactive)
REMARK    1  A    between atoms: C_3  and  O_5
REMARK    2  A    between atoms: O_5  and  C_8
REMARK    3  A    between atoms: C_14  and  C_15
REMARK    4  A    between atoms: C_16  and  N_17
REMARK    5  A    between atoms: C_16  and  C_18
REMARK    6  A    between atoms: C_19  and  C_23
REMARK    7  A    between atoms: N_21  and  C_24
REMARK    8  A    between atoms: C_31  and  O_34
REMARK                            x       y       z     vdW  Elec       q    Type
REMARK                         _______ _______ _______ _____ _____    ______ ____
ROOT
ATOM      1  C   UNL     1      20.729  40.190  43.675  0.00  0.00    +0.000 C 
ATOM      2  C   UNL     1      19.592  40.890  43.848  0.00  0.00    +0.000 C 
ENDROOT
BRANCH   1   8
ATOM      3  C   UNL     1      23.965  40.181  46.409  0.00  0.00    +0.000 A 
ATOM      4  C   UNL     1      23.434  41.394  45.973  0.00  0.00    +0.000 A 
ATOM      5  C   UNL     1      23.626  39.000  45.744  0.00  0.00    +0.000 A 
ATOM      6  C   UNL     1      22.451  41.410  44.974  0.00  0.00    +0.000 A 
ATOM      7  C   UNL     1      22.630  39.011  44.761  0.00  0.00    +0.000 A 
ATOM      8  C   UNL     1      22.002  40.213  44.407  0.00  0.00    +0.000 A 
BRANCH   3   9
ATOM      9  O   UNL     1      24.807  40.209  47.502  0.00  0.00    +0.000 OA
BRANCH   9  12
ATOM     10 BR   UNL     1      27.537  41.445  48.259  0.00  0.00    +0.000 Br
ATOM     11  C   UNL     1      25.807  41.877  48.893  0.00  0.00    +0.000 A 
ATOM     12  C   UNL     1      24.657  41.235  48.422  0.00  0.00    +0.000 A 
ATOM     13  C   UNL     1      25.699  42.885  49.868  0.00  0.00    +0.000 A 
ATOM     14  C   UNL     1      23.401  41.682  48.863  0.00  0.00    +0.000 A 
ATOM     15  C   UNL     1      24.446  43.273  50.348  0.00  0.00    +0.000 A 
ATOM     16  C   UNL     1      23.299  42.680  49.832  0.00  0.00    +0.000 A 
ENDBRANCH   9  12
ENDBRANCH   3   9
ENDBRANCH   1   8
BRANCH   2  17
ATOM     17  N   UNL     1      19.363  41.729  44.928  0.00  0.00    +0.000 N 
ATOM     18  C   UNL     1      18.475  41.350  45.921  0.00  0.00    +0.000 C 
ATOM     19  O   UNL     1      17.931  40.251  45.971  0.00  0.00    +0.000 OA
ATOM     20  H   UNL     1      19.831  42.593  44.988  0.00  0.00    +0.000 HD
BRANCH  18  21
ATOM     21  C   UNL     1      18.199  42.353  46.983  0.00  0.00    +0.000 A 
ATOM     22  C   UNL     1      19.051  42.412  48.092  0.00  0.00    +0.000 A 
ATOM     23  C   UNL     1      17.205  43.325  46.812  0.00  0.00    +0.000 A 
ATOM     24  C   UNL     1      18.929  43.451  49.016  0.00  0.00    +0.000 A 
ATOM     25  C   UNL     1      17.097  44.372  47.732  0.00  0.00    +0.000 A 
ATOM     26  C   UNL     1      17.964  44.441  48.825  0.00  0.00    +0.000 A 
ENDBRANCH  18  21
ENDBRANCH   2  17
BRANCH   2  27
ATOM     27  C   UNL     1      18.497  40.610  42.818  0.00  0.00    +0.000 C 
ATOM     28  O   UNL     1      18.035  39.473  42.723  0.00  0.00    +0.000 OA
ATOM     29  N   UNL     1      18.102  41.686  42.048  0.00  0.00    +0.000 N 
ATOM     30  H   UNL     1      18.574  42.538  42.198  0.00  0.00    +0.000 HD
BRANCH  29  31
ATOM     31  C   UNL     1      17.080  41.682  41.060  0.00  0.00    +0.000 A 
ATOM     32  C   UNL     1      15.755  41.307  41.314  0.00  0.00    +0.000 A 
ATOM     33  C   UNL     1      17.419  42.086  39.762  0.00  0.00    +0.000 A 
ATOM     34  C   UNL     1      14.810  41.311  40.282  0.00  0.00    +0.000 A 
ATOM     35  C   UNL     1      16.469  42.077  38.732  0.00  0.00    +0.000 A 
ATOM     36  C   UNL     1      15.160  41.687  38.993  0.00  0.00    +0.000 A 
BRANCH  34  37
ATOM     37  O   UNL     1      13.511  40.952  40.509  0.00  0.00    +0.000 OA
ATOM     38  H   UNL     1      13.206  40.107  40.246  0.00  0.00    +0.000 HD
ENDBRANCH  34  37
ENDBRANCH  29  31
ENDBRANCH   2  27
TORSDOF 8
ENDMDL
MODEL 4
REMARK VINA RESULT:       0.9      2.454      3.355
REMARK  Name = 324498
REMARK  8 active torsions:
REMARK  status: ('A' for Active; 'I' for Inactive)
REMARK    1  A    between atoms: C_3  and  O_5
REMARK    2  A    between atoms: O_5  and  C_8
REMARK    3  A    between atoms: C_14  and  C_15
REMARK    4  A    between atoms: C_16  and  N_17
REMARK    5  A    between atoms: C_16  and  C_18
REMARK    6  A    between atoms: C_19  and  C_23
REMARK    7  A    between atoms: N_21  and  C_24
REMARK    8  A    between atoms: C_31  and  O_34
REMARK                            x       y       z     vdW  Elec       q    Type
REMARK                         _______ _______ _______ _____ _____    ______ ____
ROOT
ATOM      1  C   UNL     1      20.675  42.016  43.715  0.00  0.00    +0.000 C 
ATOM      2  C   UNL     1      19.358  41.750  43.788  0.00  0.00    +0.000 C 
ENDROOT
BRANCH   1   8
ATOM      3  C   UNL     1      23.290  40.961  46.876  0.00  0.00    +0.000 A 
ATOM      4  C   UNL     1      22.701  42.225  46.861  0.00  0.00    +0.000 A 
ATOM      5  C   UNL     1      23.243  40.163  45.731  0.00  0.00    +0.000 A 
ATOM      6  C   UNL     1      21.938  42.629  45.757  0.00  0.00    +0.000 A 
ATOM      7  C   UNL     1      22.464  40.555  44.636  0.00  0.00    +0.000 A 
ATOM      8  C   UNL     1      21.767  41.771  44.665  0.00  0.00    +0.000 A 
BRANCH   3   9
ATOM      9  O   UNL     1      23.892  40.552  48.049  0.00  0.00    +0.000 OA
BRANCH   9  12
ATOM     10 BR   UNL     1      26.864  41.366  47.812  0.00  0.00    +0.000 Br
ATOM     11  C   UNL     1      25.549  41.965  49.034  0.00  0.00    +0.000 A 
ATOM     12  C   UNL     1      24.227  41.514  48.988  0.00  0.00    +0.000 A 
ATOM     13  C   UNL     1      25.939  42.900  50.009  0.00  0.00    +0.000 A 
ATOM     14  C   UNL     1      23.285  42.083  49.861  0.00  0.00    +0.000 A 
ATOM     15  C   UNL     1      25.006  43.408  50.916  0.00  0.00    +0.000 A 
ATOM     16  C   UNL     1      23.677  43.008  50.828  0.00  0.00    +0.000 A 
ENDBRANCH   9  12
ENDBRANCH   3   9
ENDBRANCH   1   8
BRANCH   2  17
ATOM     17  N   UNL     1      18.778  41.010  44.807  0.00  0.00    +0.000 N 
ATOM     18  C   UNL     1      18.505  39.665  44.615  0.00  0.00    +0.000 C 
ATOM     19  O   UNL     1      18.837  39.034  43.617  0.00  0.00    +0.000 OA
ATOM     20  H   UNL     1      18.560  41.440  45.665  0.00  0.00    +0.000 HD
BRANCH  18  21
ATOM     21  C   UNL     1      17.780  38.972  45.713  0.00  0.00    +0.000 A 
ATOM     22  C   UNL     1      17.426  39.703  46.853  0.00  0.00    +0.000 A 
ATOM     23  C   UNL     1      17.321  37.659  45.553  0.00  0.00    +0.000 A 
ATOM     24  C   UNL     1      16.594  39.135  47.820  0.00  0.00    +0.000 A 
ATOM     25  C   UNL     1      16.476  37.101  46.517  0.00  0.00    +0.000 A 
ATOM     26  C   UNL     1      16.105  37.841  47.642  0.00  0.00    +0.000 A 
ENDBRANCH  18  21
ENDBRANCH   2  17
BRANCH   2  27
ATOM     27  C   UNL     1      18.534  42.227  42.590  0.00  0.00    +0.000 C 
ATOM     28  O   UNL     1      18.810  43.304  42.061  0.00  0.00    +0.000 OA
ATOM     29  N   UNL     1      17.514  41.390  42.185  0.00  0.00    +0.000 N 
ATOM     30  H   UNL     1      17.374  40.571  42.714  0.00  0.00    +0.000 HD
BRANCH  29  31
ATOM     31  C   UNL     1      16.645  41.598  41.079  0.00  0.00    +0.000 A 
ATOM     32  C   UNL     1      15.272  41.328  41.108  0.00  0.00    +0.000 A 
ATOM     33  C   UNL     1      17.198  42.110  39.898  0.00  0.00    +0.000 A 
ATOM     34  C   UNL     1      14.486  41.541  39.969  0.00  0.00    +0.000 A 
ATOM     35  C   UNL     1      16.406  42.310  38.759  0.00  0.00    +0.000 A 
ATOM     36  C   UNL     1      15.046  42.023  38.795  0.00  0.00    +0.000 A 
BRANCH  34  37
ATOM     37  O   UNL     1      13.144  41.288  39.978  0.00  0.00    +0.000 OA
ATOM     38  H   UNL     1      12.536  41.986  40.122  0.00  0.00    +0.000 HD
ENDBRANCH  34  37
ENDBRANCH  29  31
ENDBRANCH   2  27
TORSDOF 8
ENDMDL
MODEL 5
REMARK VINA RESULT:       1.1      2.973      3.847
REMARK  Name = 324498
REMARK  8 active torsions:
REMARK  status: ('A' for Active; 'I' for Inactive)
REMARK    1  A    between atoms: C_3  and  O_5
REMARK    2  A    between atoms: O_5  and  C_8
REMARK    3  A    between atoms: C_14  and  C_15
REMARK    4  A    between atoms: C_16  and  N_17
REMARK    5  A    between atoms: C_16  and  C_18
REMARK    6  A    between atoms: C_19  and  C_23
REMARK    7  A    between atoms: N_21  and  C_24
REMARK    8  A    between atoms: C_31  and  O_34
REMARK                            x       y       z     vdW  Elec       q    Type
REMARK                         _______ _______ _______ _____ _____    ______ ____
ROOT
ATOM      1  C   UNL     1      20.625  39.229  44.498  0.00  0.00    +0.000 C 
ATOM      2  C   UNL     1      19.340  39.606  44.634  0.00  0.00    +0.000 C 
ENDROOT
BRANCH   1   8
ATOM      3  C   UNL     1      24.289  40.944  45.759  0.00  0.00    +0.000 A 
ATOM      4  C   UNL     1      23.087  41.588  46.055  0.00  0.00    +0.000 A 
ATOM      5  C   UNL     1      24.304  39.906  44.825  0.00  0.00    +0.000 A 
ATOM      6  C   UNL     1      21.882  41.098  45.533  0.00  0.00    +0.000 A 
ATOM      7  C   UNL     1      23.100  39.401  44.320  0.00  0.00    +0.000 A 
ATOM      8  C   UNL     1      21.878  39.965  44.712  0.00  0.00    +0.000 A 
BRANCH   3   9
ATOM      9  O   UNL     1      25.420  41.368  46.425  0.00  0.00    +0.000 OA
BRANCH   9  12
ATOM     10 BR   UNL     1      23.749  39.480  48.213  0.00  0.00    +0.000 Br
ATOM     11  C   UNL     1      24.517  41.159  48.629  0.00  0.00    +0.000 A 
ATOM     12  C   UNL     1      25.278  41.881  47.705  0.00  0.00    +0.000 A 
ATOM     13  C   UNL     1      24.305  41.675  49.920  0.00  0.00    +0.000 A 
ATOM     14  C   UNL     1      25.903  43.068  48.120  0.00  0.00    +0.000 A 
ATOM     15  C   UNL     1      24.877  42.891  50.298  0.00  0.00    +0.000 A 
ATOM     16  C   UNL     1      25.688  43.577  49.401  0.00  0.00    +0.000 A 
ENDBRANCH   9  12
ENDBRANCH   3   9
ENDBRANCH   1   8
BRANCH   2  17
ATOM     17  N   UNL     1      18.948  40.819  45.177  0.00  0.00    +0.000 N 
ATOM     18  C   UNL     1      18.518  40.881  46.493  0.00  0.00    +0.000 C 
ATOM     19  O   UNL     1      18.552  39.932  47.269  0.00  0.00    +0.000 OA
ATOM     20  H   UNL     1      18.974  41.636  44.628  0.00  0.00    +0.000 HD
BRANCH  18  21
ATOM     21  C   UNL     1      18.008  42.196  46.963  0.00  0.00    +0.000 A 
ATOM     22  C   UNL     1      18.836  42.994  47.761  0.00  0.00    +0.000 A 
ATOM     23  C   UNL     1      16.787  42.701  46.497  0.00  0.00    +0.000 A 
ATOM     24  C   UNL     1      18.461  44.302  48.072  0.00  0.00    +0.000 A 
ATOM     25  C   UNL     1      16.425  44.017  46.798  0.00  0.00    +0.000 A 
ATOM     26  C   UNL     1      17.264  44.819  47.575  0.00  0.00    +0.000 A 
ENDBRANCH  18  21
ENDBRANCH   2  17
BRANCH   2  27
ATOM     27  C   UNL     1      18.311  38.542  44.248  0.00  0.00    +0.000 C 
ATOM     28  O   UNL     1      17.372  38.852  43.515  0.00  0.00    +0.000 OA
ATOM     29  N   UNL     1      18.519  37.281  44.771  0.00  0.00    +0.000 N 
ATOM     30  H   UNL     1      19.290  37.171  45.373  0.00  0.00    +0.000 HD
BRANCH  29  31
ATOM     31  C   UNL     1      17.726  36.128  44.522  0.00  0.00    +0.000 A 
ATOM     32  C   UNL     1      17.612  35.518  43.267  0.00  0.00    +0.000 A 
ATOM     33  C   UNL     1      17.027  35.567  45.600  0.00  0.00    +0.000 A 
ATOM     34  C   UNL     1      16.795  34.395  43.099  0.00  0.00    +0.000 A 
ATOM     35  C   UNL     1      16.202  34.449  45.420  0.00  0.00    +0.000 A 
ATOM     36  C   UNL     1      16.085  33.862  44.165  0.00  0.00    +0.000 A 
BRANCH  34  37
ATOM     37  O   UNL     1      16.674  33.782  41.884  0.00  0.00    +0.000 OA
ATOM     38  H   UNL     1      17.065  32.944  41.741  0.00  0.00    +0.000 HD
ENDBRANCH  34  37
ENDBRANCH  29  31
ENDBRANCH   2  27
TORSDOF 8
ENDMDL
MODEL 6
REMARK VINA RESULT:       1.3      3.005      8.742
REMARK  Name = 324498
REMARK  8 active torsions:
REMARK  status: ('A' for Active; 'I' for Inactive)
REMARK    1  A    between atoms: C_3  and  O_5
REMARK    2  A    between atoms: O_5  and  C_8
REMARK    3  A    between atoms: C_14  and  C_15
REMARK    4  A    between atoms: C_16  and  N_17
REMARK    5  A    between atoms: C_16  and  C_18
REMARK    6  A    between atoms: C_19  and  C_23
REMARK    7  A    between atoms: N_21  and  C_24
REMARK    8  A    between atoms: C_31  and  O_34
REMARK                            x       y       z     vdW  Elec       q    Type
REMARK                         _______ _______ _______ _____ _____    ______ ____
ROOT
ATOM      1  C   UNL     1      22.903  41.073  45.829  0.00  0.00    +0.000 C 
ATOM      2  C   UNL     1      22.598  41.930  46.821  0.00  0.00    +0.000 C 
ENDROOT
BRANCH   1   8
ATOM      3  C   UNL     1      19.955  39.218  43.418  0.00  0.00    +0.000 A 
ATOM      4  C   UNL     1      20.917  38.435  44.056  0.00  0.00    +0.000 A 
ATOM      5  C   UNL     1      20.128  40.602  43.345  0.00  0.00    +0.000 A 
ATOM      6  C   UNL     1      21.970  39.047  44.750  0.00  0.00    +0.000 A 
ATOM      7  C   UNL     1      21.167  41.216  44.055  0.00  0.00    +0.000 A 
ATOM      8  C   UNL     1      22.064  40.442  44.802  0.00  0.00    +0.000 A 
BRANCH   3   9
ATOM      9  O   UNL     1      18.856  38.572  42.890  0.00  0.00    +0.000 OA
BRANCH   9  12
ATOM     10 BR   UNL     1      16.816  40.812  43.502  0.00  0.00    +0.000 Br
ATOM     11  C   UNL     1      16.886  39.040  44.162  0.00  0.00    +0.000 A 
ATOM     12  C   UNL     1      17.870  38.132  43.758  0.00  0.00    +0.000 A 
ATOM     13  C   UNL     1      15.902  38.645  45.085  0.00  0.00    +0.000 A 
ATOM     14  C   UNL     1      17.795  36.804  44.210  0.00  0.00    +0.000 A 
ATOM     15  C   UNL     1      15.879  37.339  45.580  0.00  0.00    +0.000 A 
ATOM     16  C   UNL     1      16.818  36.418  45.128  0.00  0.00    +0.000 A 
ENDBRANCH   9  12
ENDBRANCH   3   9
ENDBRANCH   1   8
BRANCH   2  17
ATOM     17  N   UNL     1      21.353  42.519  46.973  0.00  0.00    +0.000 N 
ATOM     18  C   UNL     1      20.249  41.736  47.266  0.00  0.00    +0.000 C 
ATOM     19  O   UNL     1      20.305  40.534  47.506  0.00  0.00    +0.000 OA
ATOM     20  H   UNL     1      21.254  43.493  46.872  0.00  0.00    +0.000 HD
BRANCH  18  21
ATOM     21  C   UNL     1      18.933  42.428  47.299  0.00  0.00    +0.000 A 
ATOM     22  C   UNL     1      18.877  43.746  47.768  0.00  0.00    +0.000 A 
ATOM     23  C   UNL     1      17.797  41.839  46.730  0.00  0.00    +0.000 A 
ATOM     24  C   UNL     1      17.698  44.484  47.648  0.00  0.00    +0.000 A 
ATOM     25  C   UNL     1      16.624  42.587  46.598  0.00  0.00    +0.000 A 
ATOM     26  C   UNL     1      16.578  43.910  47.046  0.00  0.00    +0.000 A 
ENDBRANCH  18  21
ENDBRANCH   2  17
BRANCH   2  27
ATOM     27  C   UNL     1      23.769  42.311  47.729  0.00  0.00    +0.000 C 
ATOM     28  O   UNL     1      24.848  42.619  47.223  0.00  0.00    +0.000 OA
ATOM     29  N   UNL     1      23.519  42.276  49.087  0.00  0.00    +0.000 N 
ATOM     30  H   UNL     1      22.622  41.980  49.366  0.00  0.00    +0.000 HD
BRANCH  29  31
ATOM     31  C   UNL     1      24.431  42.626  50.119  0.00  0.00    +0.000 A 
ATOM     32  C   UNL     1      24.045  42.912  51.434  0.00  0.00    +0.000 A 
ATOM     33  C   UNL     1      25.795  42.680  49.800  0.00  0.00    +0.000 A 
ATOM     34  C   UNL     1      25.003  43.268  52.390  0.00  0.00    +0.000 A 
ATOM     35  C   UNL     1      26.746  43.048  50.760  0.00  0.00    +0.000 A 
ATOM     36  C   UNL     1      26.348  43.345  52.059  0.00  0.00    +0.000 A 
BRANCH  34  37
ATOM     37  O   UNL     1      24.648  43.546  53.679  0.00  0.00    +0.000 OA
ATOM     38  H   UNL     1      25.303  43.782  54.305  0.00  0.00    +0.000 HD
ENDBRANCH  34  37
ENDBRANCH  29  31
ENDBRANCH   2  27
TORSDOF 8
ENDMDL
MODEL 7
REMARK VINA RESULT:       1.7      4.066      6.201
REMARK  Name = 324498
REMARK  8 active torsions:
REMARK  status: ('A' for Active; 'I' for Inactive)
REMARK    1  A    between atoms: C_3  and  O_5
REMARK    2  A    between atoms: O_5  and  C_8
REMARK    3  A    between atoms: C_14  and  C_15
REMARK    4  A    between atoms: C_16  and  N_17
REMARK    5  A    between atoms: C_16  and  C_18
REMARK    6  A    between atoms: C_19  and  C_23
REMARK    7  A    between atoms: N_21  and  C_24
REMARK    8  A    between atoms: C_31  and  O_34
REMARK                            x       y       z     vdW  Elec       q    Type
REMARK                         _______ _______ _______ _____ _____    ______ ____
ROOT
ATOM      1  C   UNL     1      23.289  40.720  44.207  0.00  0.00    +0.000 C 
ATOM      2  C   UNL     1      22.653  41.068  45.340  0.00  0.00    +0.000 C 
ENDROOT
BRANCH   1   8
ATOM      3  C   UNL     1      26.916  42.458  42.875  0.00  0.00    +0.000 A 
ATOM      4  C   UNL     1      25.911  42.166  41.952  0.00  0.00    +0.000 A 
ATOM      5  C   UNL     1      26.843  41.931  44.166  0.00  0.00    +0.000 A 
ATOM      6  C   UNL     1      24.763  41.476  42.363  0.00  0.00    +0.000 A 
ATOM      7  C   UNL     1      25.687  41.260  44.583  0.00  0.00    +0.000 A 
ATOM      8  C   UNL     1      24.620  41.073  43.695  0.00  0.00    +0.000 A 
BRANCH   3   9
ATOM      9  O   UNL     1      27.946  43.277  42.458  0.00  0.00    +0.000 OA
BRANCH   9  12
ATOM     10 BR   UNL     1      27.880  46.316  43.017  0.00  0.00    +0.000 Br
ATOM     11  C   UNL     1      27.696  45.394  41.375  0.00  0.00    +0.000 A 
ATOM     12  C   UNL     1      27.780  44.001  41.288  0.00  0.00    +0.000 A 
ATOM     13  C   UNL     1      27.473  46.158  40.216  0.00  0.00    +0.000 A 
ATOM     14  C   UNL     1      27.738  43.396  40.021  0.00  0.00    +0.000 A 
ATOM     15  C   UNL     1      27.365  45.537  38.969  0.00  0.00    +0.000 A 
ATOM     16  C   UNL     1      27.514  44.158  38.875  0.00  0.00    +0.000 A 
ENDBRANCH   9  12
ENDBRANCH   3   9
ENDBRANCH   1   8
BRANCH   2  17
ATOM     17  N   UNL     1      23.251  41.773  46.372  0.00  0.00    +0.000 N 
ATOM     18  C   UNL     1      23.882  41.091  47.400  0.00  0.00    +0.000 C 
ATOM     19  O   UNL     1      24.043  39.875  47.418  0.00  0.00    +0.000 OA
ATOM     20  H   UNL     1      23.227  42.757  46.376  0.00  0.00    +0.000 HD
BRANCH  18  21
ATOM     21  C   UNL     1      24.398  41.915  48.525  0.00  0.00    +0.000 A 
ATOM     22  C   UNL     1      23.512  42.306  49.536  0.00  0.00    +0.000 A 
ATOM     23  C   UNL     1      25.769  42.168  48.660  0.00  0.00    +0.000 A 
ATOM     24  C   UNL     1      23.994  42.925  50.691  0.00  0.00    +0.000 A 
ATOM     25  C   UNL     1      26.248  42.774  49.826  0.00  0.00    +0.000 A 
ATOM     26  C   UNL     1      25.364  43.141  50.843  0.00  0.00    +0.000 A 
ENDBRANCH  18  21
ENDBRANCH   2  17
BRANCH   2  27
ATOM     27  C   UNL     1      21.227  40.529  45.473  0.00  0.00    +0.000 C 
ATOM     28  O   UNL     1      21.004  39.348  45.207  0.00  0.00    +0.000 OA
ATOM     29  N   UNL     1      20.274  41.435  45.891  0.00  0.00    +0.000 N 
ATOM     30  H   UNL     1      20.575  42.361  46.040  0.00  0.00    +0.000 HD
BRANCH  29  31
ATOM     31  C   UNL     1      18.899  41.160  46.127  0.00  0.00    +0.000 A 
ATOM     32  C   UNL     1      18.412  39.904  46.506  0.00  0.00    +0.000 A 
ATOM     33  C   UNL     1      17.984  42.211  45.978  0.00  0.00    +0.000 A 
ATOM     34  C   UNL     1      17.040  39.707  46.701  0.00  0.00    +0.000 A 
ATOM     35  C   UNL     1      16.611  42.003  46.164  0.00  0.00    +0.000 A 
ATOM     36  C   UNL     1      16.138  40.746  46.526  0.00  0.00    +0.000 A 
BRANCH  34  37
ATOM     37  O   UNL     1      16.545  38.491  47.076  0.00  0.00    +0.000 OA
ATOM     38  H   UNL     1      16.186  37.913  46.432  0.00  0.00    +0.000 HD
ENDBRANCH  34  37
ENDBRANCH  29  31
ENDBRANCH   2  27
TORSDOF 8
ENDMDL
MODEL 8
REMARK VINA RESULT:       2.1      3.126      8.651
REMARK  Name = 324498
REMARK  8 active torsions:
REMARK  status: ('A' for Active; 'I' for Inactive)
REMARK    1  A    between atoms: C_3  and  O_5
REMARK    2  A    between atoms: O_5  and  C_8
REMARK    3  A    between atoms: C_14  and  C_15
REMARK    4  A    between atoms: C_16  and  N_17
REMARK    5  A    between atoms: C_16  and  C_18
REMARK    6  A    between atoms: C_19  and  C_23
REMARK    7  A    between atoms: N_21  and  C_24
REMARK    8  A    between atoms: C_31  and  O_34
REMARK                            x       y       z     vdW  Elec       q    Type
REMARK                         _______ _______ _______ _____ _____    ______ ____
ROOT
ATOM      1  C   UNL     1      21.676  40.482  45.148  0.00  0.00    +0.000 C 
ATOM      2  C   UNL     1      21.736  41.485  46.042  0.00  0.00    +0.000 C 
ENDROOT
BRANCH   1   8
ATOM      3  C   UNL     1      18.174  38.600  43.682  0.00  0.00    +0.000 A 
ATOM      4  C   UNL     1      19.385  37.908  43.672  0.00  0.00    +0.000 A 
ATOM      5  C   UNL     1      18.169  39.979  43.906  0.00  0.00    +0.000 A 
ATOM      6  C   UNL     1      20.570  38.564  44.034  0.00  0.00    +0.000 A 
ATOM      7  C   UNL     1      19.347  40.631  44.289  0.00  0.00    +0.000 A 
ATOM      8  C   UNL     1      20.546  39.913  44.402  0.00  0.00    +0.000 A 
BRANCH   3   9
ATOM      9  O   UNL     1      17.021  37.871  43.476  0.00  0.00    +0.000 OA
BRANCH   9  12
ATOM     10 BR   UNL     1      16.679  38.364  46.508  0.00  0.00    +0.000 Br
ATOM     11  C   UNL     1      16.729  36.729  45.556  0.00  0.00    +0.000 A 
ATOM     12  C   UNL     1      16.863  36.679  44.165  0.00  0.00    +0.000 A 
ATOM     13  C   UNL     1      16.622  35.537  46.294  0.00  0.00    +0.000 A 
ATOM     14  C   UNL     1      16.787  35.434  43.519  0.00  0.00    +0.000 A 
ATOM     15  C   UNL     1      16.617  34.301  45.644  0.00  0.00    +0.000 A 
ATOM     16  C   UNL     1      16.684  34.255  44.256  0.00  0.00    +0.000 A 
ENDBRANCH   9  12
ENDBRANCH   3   9
ENDBRANCH   1   8
BRANCH   2  17
ATOM     17  N   UNL     1      20.667  42.317  46.336  0.00  0.00    +0.000 N 
ATOM     18  C   UNL     1      19.626  41.852  47.123  0.00  0.00    +0.000 C 
ATOM     19  O   UNL     1      19.623  40.758  47.679  0.00  0.00    +0.000 OA
ATOM     20  H   UNL     1      20.647  43.236  45.986  0.00  0.00    +0.000 HD
BRANCH  18  21
ATOM     21  C   UNL     1      18.466  42.765  47.298  0.00  0.00    +0.000 A 
ATOM     22  C   UNL     1      18.630  43.925  48.063  0.00  0.00    +0.000 A 
ATOM     23  C   UNL     1      17.275  42.557  46.589  0.00  0.00    +0.000 A 
ATOM     24  C   UNL     1      17.621  44.889  48.101  0.00  0.00    +0.000 A 
ATOM     25  C   UNL     1      16.275  43.533  46.618  0.00  0.00    +0.000 A 
ATOM     26  C   UNL     1      16.452  44.701  47.364  0.00  0.00    +0.000 A 
ENDBRANCH  18  21
ENDBRANCH   2  17
BRANCH   2  27
ATOM     27  C   UNL     1      23.119  41.733  46.645  0.00  0.00    +0.000 C 
ATOM     28  O   UNL     1      24.100  41.782  45.903  0.00  0.00    +0.000 OA
ATOM     29  N   UNL     1      23.163  41.884  48.017  0.00  0.00    +0.000 N 
ATOM     30  H   UNL     1      22.311  41.789  48.502  0.00  0.00    +0.000 HD
BRANCH  29  31
ATOM     31  C   UNL     1      24.319  42.161  48.796  0.00  0.00    +0.000 A 
ATOM     32  C   UNL     1      25.600  41.693  48.479  0.00  0.00    +0.000 A 
ATOM     33  C   UNL     1      24.166  42.955  49.940  0.00  0.00    +0.000 A 
ATOM     34  C   UNL     1      26.687  41.994  49.308  0.00  0.00    +0.000 A 
ATOM     35  C   UNL     1      25.257  43.242  50.770  0.00  0.00    +0.000 A 
ATOM     36  C   UNL     1      26.522  42.758  50.453  0.00  0.00    +0.000 A 
BRANCH  34  37
ATOM     37  O   UNL     1      27.945  41.551  49.014  0.00  0.00    +0.000 OA
ATOM     38  H   UNL     1      28.692  42.003  49.353  0.00  0.00    +0.000 HD
ENDBRANCH  34  37
ENDBRANCH  29  31
ENDBRANCH   2  27
TORSDOF 8
ENDMDL
MODEL 9
REMARK VINA RESULT:       3.3      3.722      4.843
REMARK  Name = 324498
REMARK  8 active torsions:
REMARK  status: ('A' for Active; 'I' for Inactive)
REMARK    1  A    between atoms: C_3  and  O_5
REMARK    2  A    between atoms: O_5  and  C_8
REMARK    3  A    between atoms: C_14  and  C_15
REMARK    4  A    between atoms: C_16  and  N_17
REMARK    5  A    between atoms: C_16  and  C_18
REMARK    6  A    between atoms: C_19  and  C_23
REMARK    7  A    between atoms: N_21  and  C_24
REMARK    8  A    between atoms: C_31  and  O_34
REMARK                            x       y       z     vdW  Elec       q    Type
REMARK                         _______ _______ _______ _____ _____    ______ ____
ROOT
ATOM      1  C   UNL     1      19.183  39.206  46.102  0.00  0.00    +0.000 C 
ATOM      2  C   UNL     1      17.862  39.395  45.931  0.00  0.00    +0.000 C 
ENDROOT
BRANCH   1   8
ATOM      3  C   UNL     1      22.195  41.712  47.714  0.00  0.00    +0.000 A 
ATOM      4  C   UNL     1      20.915  42.223  47.499  0.00  0.00    +0.000 A 
ATOM      5  C   UNL     1      22.554  40.486  47.149  0.00  0.00    +0.000 A 
ATOM      6  C   UNL     1      19.949  41.442  46.849  0.00  0.00    +0.000 A 
ATOM      7  C   UNL     1      21.585  39.696  46.518  0.00  0.00    +0.000 A 
ATOM      8  C   UNL     1      20.265  40.151  46.410  0.00  0.00    +0.000 A 
BRANCH   3   9
ATOM      9  O   UNL     1      23.054  42.455  48.498  0.00  0.00    +0.000 OA
BRANCH   9  12
ATOM     10 BR   UNL     1      24.415  43.113  51.194  0.00  0.00    +0.000 Br
ATOM     11  C   UNL     1      25.173  42.419  49.605  0.00  0.00    +0.000 A 
ATOM     12  C   UNL     1      24.405  42.147  48.469  0.00  0.00    +0.000 A 
ATOM     13  C   UNL     1      26.557  42.172  49.594  0.00  0.00    +0.000 A 
ATOM     14  C   UNL     1      25.020  41.535  47.364  0.00  0.00    +0.000 A 
ATOM     15  C   UNL     1      27.168  41.625  48.463  0.00  0.00    +0.000 A 
ATOM     16  C   UNL     1      26.394  41.294  47.356  0.00  0.00    +0.000 A 
ENDBRANCH   9  12
ENDBRANCH   3   9
ENDBRANCH   1   8
BRANCH   2  17
ATOM     17  N   UNL     1      17.219  40.599  46.171  0.00  0.00    +0.000 N 
ATOM     18  C   UNL     1      17.300  41.623  45.242  0.00  0.00    +0.000 C 
ATOM     19  O   UNL     1      17.831  41.509  44.142  0.00  0.00    +0.000 OA
ATOM     20  H   UNL     1      16.707  40.727  47.002  0.00  0.00    +0.000 HD
BRANCH  18  21
ATOM     21  C   UNL     1      16.680  42.918  45.625  0.00  0.00    +0.000 A 
ATOM     22  C   UNL     1      16.678  43.291  46.975  0.00  0.00    +0.000 A 
ATOM     23  C   UNL     1      16.244  43.823  44.649  0.00  0.00    +0.000 A 
ATOM     24  C   UNL     1      16.268  44.572  47.348  0.00  0.00    +0.000 A 
ATOM     25  C   UNL     1      15.849  45.110  45.027  0.00  0.00    +0.000 A 
ATOM     26  C   UNL     1      15.871  45.487  46.372  0.00  0.00    +0.000 A 
ENDBRANCH  18  21
ENDBRANCH   2  17
BRANCH   2  27
ATOM     27  C   UNL     1      17.073  38.139  45.555  0.00  0.00    +0.000 C 
ATOM     28  O   UNL     1      15.847  38.205  45.457  0.00  0.00    +0.000 OA
ATOM     29  N   UNL     1      17.818  36.994  45.352  0.00  0.00    +0.000 N 
ATOM     30  H   UNL     1      18.790  37.065  45.495  0.00  0.00    +0.000 HD
BRANCH  29  31
ATOM     31  C   UNL     1      17.317  35.724  44.958  0.00  0.00    +0.000 A 
ATOM     32  C   UNL     1      17.231  35.302  43.626  0.00  0.00    +0.000 A 
ATOM     33  C   UNL     1      16.894  34.844  45.963  0.00  0.00    +0.000 A 
ATOM     34  C   UNL     1      16.707  34.042  43.316  0.00  0.00    +0.000 A 
ATOM     35  C   UNL     1      16.360  33.588  45.643  0.00  0.00    +0.000 A 
ATOM     36  C   UNL     1      16.265  33.187  44.315  0.00  0.00    +0.000 A 
BRANCH  34  37
ATOM     37  O   UNL     1      16.619  33.609  42.023  0.00  0.00    +0.000 OA
ATOM     38  H   UNL     1      15.876  33.841  41.502  0.00  0.00    +0.000 HD
ENDBRANCH  34  37
ENDBRANCH  29  31
ENDBRANCH   2  27
TORSDOF 8
ENDMDL
