MODEL 1
REMARK VINA RESULT:      -8.4      0.000      0.000
REMARK  Name = 323164
REMARK  6 active torsions:
REMARK  status: ('A' for Active; 'I' for Inactive)
REMARK    1  A    between atoms: C_3  and  O_5
REMARK    2  A    between atoms: O_5  and  C_8
REMARK    3  A    between atoms: C_14  and  C_15
REMARK    4  A    between atoms: C_16  and  N_17
REMARK    5  A    between atoms: C_16  and  C_18
REMARK    6  A    between atoms: C_19  and  C_23
REMARK                            x       y       z     vdW  Elec       q    Type
REMARK                         _______ _______ _______ _____ _____    ______ ____
ROOT
ATOM      1  C   UNL     1      20.199  42.406  43.574  0.00  0.00    +0.000 C 
ATOM      2  C   UNL     1      18.947  41.947  43.389  0.00  0.00    +0.000 C 
ENDROOT
BRANCH   1   8
ATOM      3  C   UNL     1      22.531  41.256  46.946  0.00  0.00    +0.000 A 
ATOM      4  C   UNL     1      21.896  42.502  46.946  0.00  0.00    +0.000 A 
ATOM      5  C   UNL     1      22.614  40.531  45.758  0.00  0.00    +0.000 A 
ATOM      6  C   UNL     1      21.218  42.936  45.796  0.00  0.00    +0.000 A 
ATOM      7  C   UNL     1      21.911  40.949  44.625  0.00  0.00    +0.000 A 
ATOM      8  C   UNL     1      21.170  42.135  44.648  0.00  0.00    +0.000 A 
BRANCH   3   9
ATOM      9  O   UNL     1      23.029  40.781  48.145  0.00  0.00    +0.000 OA
BRANCH   9  12
ATOM     10 BR   UNL     1      25.845  40.683  46.828  0.00  0.00    +0.000 Br
ATOM     11  C   UNL     1      25.277  41.610  48.383  0.00  0.00    +0.000 A 
ATOM     12  C   UNL     1      23.947  41.575  48.820  0.00  0.00    +0.000 A 
ATOM     13  C   UNL     1      26.238  42.348  49.091  0.00  0.00    +0.000 A 
ATOM     14  C   UNL     1      23.581  42.370  49.918  0.00  0.00    +0.000 A 
ATOM     15  C   UNL     1      25.869  43.075  50.223  0.00  0.00    +0.000 A 
ATOM     16  C   UNL     1      24.539  43.096  50.630  0.00  0.00    +0.000 A 
ENDBRANCH   9  12
ENDBRANCH   3   9
ENDBRANCH   1   8
BRANCH   2  17
ATOM     17  C   UNL     1      18.180  42.563  42.246  0.00  0.00    +0.000 C 
ATOM     18  O   UNL     1      18.449  43.644  41.738  0.00  0.00    +0.000 OA
ATOM     19  N   UNL     1      17.160  41.794  41.760  0.00  0.00    +0.000 N 
ATOM     20  H   UNL     1      16.955  40.927  42.179  0.00  0.00    +0.000 HD
ATOM     21  H   UNL     1      16.631  42.107  40.991  0.00  0.00    +0.000 HD
ENDBRANCH   2  17
BRANCH   2  22
ATOM     22  N   UNL     1      18.314  40.976  44.149  0.00  0.00    +0.000 N 
ATOM     23  C   UNL     1      18.625  39.633  43.993  0.00  0.00    +0.000 C 
ATOM     24  O   UNL     1      19.375  39.198  43.133  0.00  0.00    +0.000 OA
ATOM     25  H   UNL     1      17.633  41.244  44.807  0.00  0.00    +0.000 HD
BRANCH  23  26
ATOM     26  C   UNL     1      17.896  38.670  44.858  0.00  0.00    +0.000 A 
ATOM     27  C   UNL     1      17.155  39.200  45.924  0.00  0.00    +0.000 A 
ATOM     28  C   UNL     1      17.835  37.302  44.579  0.00  0.00    +0.000 A 
ATOM     29  C   UNL     1      16.330  38.376  46.688  0.00  0.00    +0.000 A 
ATOM     30  C   UNL     1      17.000  36.480  45.344  0.00  0.00    +0.000 A 
ATOM     31  C   UNL     1      16.241  37.019  46.386  0.00  0.00    +0.000 A 
ENDBRANCH  23  26
ENDBRANCH   2  22
TORSDOF 6
ENDMDL
MODEL 2
REMARK VINA RESULT:      -7.0      3.589      7.733
REMARK  Name = 323164
REMARK  6 active torsions:
REMARK  status: ('A' for Active; 'I' for Inactive)
REMARK    1  A    between atoms: C_3  and  O_5
REMARK    2  A    between atoms: O_5  and  C_8
REMARK    3  A    between atoms: C_14  and  C_15
REMARK    4  A    between atoms: C_16  and  N_17
REMARK    5  A    between atoms: C_16  and  C_18
REMARK    6  A    between atoms: C_19  and  C_23
REMARK                            x       y       z     vdW  Elec       q    Type
REMARK                         _______ _______ _______ _____ _____    ______ ____
ROOT
ATOM      1  C   UNL     1      23.133  39.003  44.608  0.00  0.00    +0.000 C 
ATOM      2  C   UNL     1      23.805  38.848  45.764  0.00  0.00    +0.000 C 
ENDROOT
BRANCH   1   8
ATOM      3  C   UNL     1      20.044  41.847  43.898  0.00  0.00    +0.000 A 
ATOM      4  C   UNL     1      20.041  40.642  43.188  0.00  0.00    +0.000 A 
ATOM      5  C   UNL     1      21.181  42.214  44.618  0.00  0.00    +0.000 A 
ATOM      6  C   UNL     1      21.113  39.748  43.334  0.00  0.00    +0.000 A 
ATOM      7  C   UNL     1      22.232  41.309  44.788  0.00  0.00    +0.000 A 
ATOM      8  C   UNL     1      22.187  40.050  44.181  0.00  0.00    +0.000 A 
BRANCH   3   9
ATOM      9  O   UNL     1      18.895  42.617  43.876  0.00  0.00    +0.000 OA
BRANCH   9  12
ATOM     10 BR   UNL     1      16.793  40.337  44.126  0.00  0.00    +0.000 Br
ATOM     11  C   UNL     1      17.141  41.786  45.301  0.00  0.00    +0.000 A 
ATOM     12  C   UNL     1      18.163  42.712  45.051  0.00  0.00    +0.000 A 
ATOM     13  C   UNL     1      16.340  41.905  46.447  0.00  0.00    +0.000 A 
ATOM     14  C   UNL     1      18.428  43.694  46.019  0.00  0.00    +0.000 A 
ATOM     15  C   UNL     1      16.573  42.933  47.362  0.00  0.00    +0.000 A 
ATOM     16  C   UNL     1      17.624  43.820  47.154  0.00  0.00    +0.000 A 
ENDBRANCH   9  12
ENDBRANCH   3   9
ENDBRANCH   1   8
BRANCH   2  17
ATOM     17  C   UNL     1      24.578  37.562  45.911  0.00  0.00    +0.000 C 
ATOM     18  O   UNL     1      25.689  37.366  45.434  0.00  0.00    +0.000 OA
ATOM     19  N   UNL     1      23.966  36.611  46.679  0.00  0.00    +0.000 N 
ATOM     20  H   UNL     1      23.073  36.782  47.055  0.00  0.00    +0.000 HD
ATOM     21  H   UNL     1      24.419  35.754  46.854  0.00  0.00    +0.000 HD
ENDBRANCH   2  17
BRANCH   2  22
ATOM     22  N   UNL     1      23.842  39.754  46.812  0.00  0.00    +0.000 N 
ATOM     23  C   UNL     1      24.858  40.693  46.909  0.00  0.00    +0.000 C 
ATOM     24  O   UNL     1      25.828  40.732  46.168  0.00  0.00    +0.000 OA
ATOM     25  H   UNL     1      23.137  39.728  47.499  0.00  0.00    +0.000 HD
BRANCH  23  26
ATOM     26  C   UNL     1      24.807  41.622  48.067  0.00  0.00    +0.000 A 
ATOM     27  C   UNL     1      23.558  41.823  48.673  0.00  0.00    +0.000 A 
ATOM     28  C   UNL     1      25.952  42.197  48.626  0.00  0.00    +0.000 A 
ATOM     29  C   UNL     1      23.456  42.563  49.849  0.00  0.00    +0.000 A 
ATOM     30  C   UNL     1      25.845  42.933  49.811  0.00  0.00    +0.000 A 
ATOM     31  C   UNL     1      24.602  43.104  50.425  0.00  0.00    +0.000 A 
ENDBRANCH  23  26
ENDBRANCH   2  22
TORSDOF 6
ENDMDL
MODEL 3
REMARK VINA RESULT:      -6.6      1.198      1.731
REMARK  Name = 323164
REMARK  6 active torsions:
REMARK  status: ('A' for Active; 'I' for Inactive)
REMARK    1  A    between atoms: C_3  and  O_5
REMARK    2  A    between atoms: O_5  and  C_8
REMARK    3  A    between atoms: C_14  and  C_15
REMARK    4  A    between atoms: C_16  and  N_17
REMARK    5  A    between atoms: C_16  and  C_18
REMARK    6  A    between atoms: C_19  and  C_23
REMARK                            x       y       z     vdW  Elec       q    Type
REMARK                         _______ _______ _______ _____ _____    ______ ____
ROOT
ATOM      1  C   UNL     1      20.500  42.251  44.142  0.00  0.00    +0.000 C 
ATOM      2  C   UNL     1      19.311  41.860  43.647  0.00  0.00    +0.000 C 
ENDROOT
BRANCH   1   8
ATOM      3  C   UNL     1      23.460  40.874  46.876  0.00  0.00    +0.000 A 
ATOM      4  C   UNL     1      23.646  40.668  45.506  0.00  0.00    +0.000 A 
ATOM      5  C   UNL     1      22.210  41.278  47.344  0.00  0.00    +0.000 A 
ATOM      6  C   UNL     1      22.627  41.019  44.606  0.00  0.00    +0.000 A 
ATOM      7  C   UNL     1      21.208  41.657  46.445  0.00  0.00    +0.000 A 
ATOM      8  C   UNL     1      21.425  41.571  45.066  0.00  0.00    +0.000 A 
BRANCH   3   9
ATOM      9  O   UNL     1      24.545  40.693  47.713  0.00  0.00    +0.000 OA
BRANCH   9  12
ATOM     10 BR   UNL     1      27.523  41.490  48.128  0.00  0.00    +0.000 Br
ATOM     11  C   UNL     1      25.989  42.014  49.116  0.00  0.00    +0.000 A 
ATOM     12  C   UNL     1      24.702  41.585  48.765  0.00  0.00    +0.000 A 
ATOM     13  C   UNL     1      26.180  42.860  50.219  0.00  0.00    +0.000 A 
ATOM     14  C   UNL     1      23.608  42.099  49.479  0.00  0.00    +0.000 A 
ATOM     15  C   UNL     1      25.084  43.301  50.962  0.00  0.00    +0.000 A 
ATOM     16  C   UNL     1      23.797  42.931  50.584  0.00  0.00    +0.000 A 
ENDBRANCH   9  12
ENDBRANCH   3   9
ENDBRANCH   1   8
BRANCH   2  17
ATOM     17  C   UNL     1      18.562  42.888  42.837  0.00  0.00    +0.000 C 
ATOM     18  O   UNL     1      19.028  43.477  41.870  0.00  0.00    +0.000 OA
ATOM     19  N   UNL     1      17.269  43.095  43.229  0.00  0.00    +0.000 N 
ATOM     20  H   UNL     1      16.908  42.614  44.008  0.00  0.00    +0.000 HD
ATOM     21  H   UNL     1      16.698  43.724  42.731  0.00  0.00    +0.000 HD
ENDBRANCH   2  17
BRANCH   2  22
ATOM     22  N   UNL     1      18.726  40.616  43.820  0.00  0.00    +0.000 N 
ATOM     23  C   UNL     1      17.962  40.336  44.945  0.00  0.00    +0.000 C 
ATOM     24  O   UNL     1      17.833  41.096  45.892  0.00  0.00    +0.000 OA
ATOM     25  H   UNL     1      18.856  39.920  43.136  0.00  0.00    +0.000 HD
BRANCH  23  26
ATOM     26  C   UNL     1      17.374  38.975  45.036  0.00  0.00    +0.000 A 
ATOM     27  C   UNL     1      18.024  37.948  44.336  0.00  0.00    +0.000 A 
ATOM     28  C   UNL     1      16.291  38.675  45.867  0.00  0.00    +0.000 A 
ATOM     29  C   UNL     1      17.618  36.624  44.490  0.00  0.00    +0.000 A 
ATOM     30  C   UNL     1      15.893  37.343  46.025  0.00  0.00    +0.000 A 
ATOM     31  C   UNL     1      16.563  36.321  45.347  0.00  0.00    +0.000 A 
ENDBRANCH  23  26
ENDBRANCH   2  22
TORSDOF 6
ENDMDL
MODEL 4
REMARK VINA RESULT:      -6.4      2.334      3.721
REMARK  Name = 323164
REMARK  6 active torsions:
REMARK  status: ('A' for Active; 'I' for Inactive)
REMARK    1  A    between atoms: C_3  and  O_5
REMARK    2  A    between atoms: O_5  and  C_8
REMARK    3  A    between atoms: C_14  and  C_15
REMARK    4  A    between atoms: C_16  and  N_17
REMARK    5  A    between atoms: C_16  and  C_18
REMARK    6  A    between atoms: C_19  and  C_23
REMARK                            x       y       z     vdW  Elec       q    Type
REMARK                         _______ _______ _______ _____ _____    ______ ____
ROOT
ATOM      1  C   UNL     1      20.333  38.998  44.095  0.00  0.00    +0.000 C 
ATOM      2  C   UNL     1      19.100  39.515  44.243  0.00  0.00    +0.000 C 
ENDROOT
BRANCH   1   8
ATOM      3  C   UNL     1      23.955  40.444  45.803  0.00  0.00    +0.000 A 
ATOM      4  C   UNL     1      22.966  41.356  45.424  0.00  0.00    +0.000 A 
ATOM      5  C   UNL     1      23.862  39.118  45.380  0.00  0.00    +0.000 A 
ATOM      6  C   UNL     1      21.817  40.898  44.760  0.00  0.00    +0.000 A 
ATOM      7  C   UNL     1      22.704  38.658  44.748  0.00  0.00    +0.000 A 
ATOM      8  C   UNL     1      21.652  39.537  44.471  0.00  0.00    +0.000 A 
BRANCH   3   9
ATOM      9  O   UNL     1      24.980  40.897  46.613  0.00  0.00    +0.000 OA
BRANCH   9  12
ATOM     10 BR   UNL     1      27.468  41.613  48.337  0.00  0.00    +0.000 Br
ATOM     11  C   UNL     1      25.631  41.928  48.690  0.00  0.00    +0.000 A 
ATOM     12  C   UNL     1      24.630  41.570  47.776  0.00  0.00    +0.000 A 
ATOM     13  C   UNL     1      25.294  42.545  49.905  0.00  0.00    +0.000 A 
ATOM     14  C   UNL     1      23.303  41.930  48.061  0.00  0.00    +0.000 A 
ATOM     15  C   UNL     1      23.961  42.829  50.202  0.00  0.00    +0.000 A 
ATOM     16  C   UNL     1      22.967  42.533  49.275  0.00  0.00    +0.000 A 
ENDBRANCH   9  12
ENDBRANCH   3   9
ENDBRANCH   1   8
BRANCH   2  17
ATOM     17  C   UNL     1      17.977  38.744  43.595  0.00  0.00    +0.000 C 
ATOM     18  O   UNL     1      17.837  37.530  43.676  0.00  0.00    +0.000 OA
ATOM     19  N   UNL     1      17.064  39.513  42.930  0.00  0.00    +0.000 N 
ATOM     20  H   UNL     1      17.190  40.488  42.873  0.00  0.00    +0.000 HD
ATOM     21  H   UNL     1      16.280  39.092  42.507  0.00  0.00    +0.000 HD
ENDBRANCH   2  17
BRANCH   2  22
ATOM     22  N   UNL     1      18.781  40.678  44.927  0.00  0.00    +0.000 N 
ATOM     23  C   UNL     1      18.338  40.635  46.241  0.00  0.00    +0.000 C 
ATOM     24  O   UNL     1      18.097  39.604  46.850  0.00  0.00    +0.000 OA
ATOM     25  H   UNL     1      18.869  41.546  44.472  0.00  0.00    +0.000 HD
BRANCH  23  26
ATOM     26  C   UNL     1      18.026  41.936  46.887  0.00  0.00    +0.000 A 
ATOM     27  C   UNL     1      18.990  42.467  47.757  0.00  0.00    +0.000 A 
ATOM     28  C   UNL     1      16.885  42.680  46.575  0.00  0.00    +0.000 A 
ATOM     29  C   UNL     1      18.834  43.746  48.286  0.00  0.00    +0.000 A 
ATOM     30  C   UNL     1      16.736  43.967  47.103  0.00  0.00    +0.000 A 
ATOM     31  C   UNL     1      17.715  44.502  47.945  0.00  0.00    +0.000 A 
ENDBRANCH  23  26
ENDBRANCH   2  22
TORSDOF 6
ENDMDL
MODEL 5
REMARK VINA RESULT:      -6.1      3.178      8.083
REMARK  Name = 323164
REMARK  6 active torsions:
REMARK  status: ('A' for Active; 'I' for Inactive)
REMARK    1  A    between atoms: C_3  and  O_5
REMARK    2  A    between atoms: O_5  and  C_8
REMARK    3  A    between atoms: C_14  and  C_15
REMARK    4  A    between atoms: C_16  and  N_17
REMARK    5  A    between atoms: C_16  and  C_18
REMARK    6  A    between atoms: C_19  and  C_23
REMARK                            x       y       z     vdW  Elec       q    Type
REMARK                         _______ _______ _______ _____ _____    ______ ____
ROOT
ATOM      1  C   UNL     1      23.116  38.991  44.635  0.00  0.00    +0.000 C 
ATOM      2  C   UNL     1      23.915  38.904  45.714  0.00  0.00    +0.000 C 
ENDROOT
BRANCH   1   8
ATOM      3  C   UNL     1      19.360  40.971  44.314  0.00  0.00    +0.000 A 
ATOM      4  C   UNL     1      19.758  40.091  43.303  0.00  0.00    +0.000 A 
ATOM      5  C   UNL     1      20.291  41.389  45.264  0.00  0.00    +0.000 A 
ATOM      6  C   UNL     1      21.040  39.520  43.344  0.00  0.00    +0.000 A 
ATOM      7  C   UNL     1      21.555  40.795  45.322  0.00  0.00    +0.000 A 
ATOM      8  C   UNL     1      21.924  39.822  44.387  0.00  0.00    +0.000 A 
BRANCH   3   9
ATOM      9  O   UNL     1      18.036  41.369  44.344  0.00  0.00    +0.000 OA
BRANCH   9  12
ATOM     10 BR   UNL     1      17.083  43.104  46.744  0.00  0.00    +0.000 Br
ATOM     11  C   UNL     1      16.684  41.294  46.335  0.00  0.00    +0.000 A 
ATOM     12  C   UNL     1      17.173  40.672  45.179  0.00  0.00    +0.000 A 
ATOM     13  C   UNL     1      15.868  40.586  47.231  0.00  0.00    +0.000 A 
ATOM     14  C   UNL     1      16.749  39.365  44.891  0.00  0.00    +0.000 A 
ATOM     15  C   UNL     1      15.517  39.263  46.964  0.00  0.00    +0.000 A 
ATOM     16  C   UNL     1      15.947  38.656  45.788  0.00  0.00    +0.000 A 
ENDBRANCH   9  12
ENDBRANCH   3   9
ENDBRANCH   1   8
BRANCH   2  17
ATOM     17  C   UNL     1      24.965  37.823  45.675  0.00  0.00    +0.000 C 
ATOM     18  O   UNL     1      26.111  37.989  45.279  0.00  0.00    +0.000 OA
ATOM     19  N   UNL     1      24.561  36.615  46.171  0.00  0.00    +0.000 N 
ATOM     20  H   UNL     1      23.636  36.496  46.486  0.00  0.00    +0.000 HD
ATOM     21  H   UNL     1      25.196  35.863  46.214  0.00  0.00    +0.000 HD
ENDBRANCH   2  17
BRANCH   2  22
ATOM     22  N   UNL     1      23.852  39.709  46.841  0.00  0.00    +0.000 N 
ATOM     23  C   UNL     1      24.759  40.741  47.033  0.00  0.00    +0.000 C 
ATOM     24  O   UNL     1      25.719  40.953  46.308  0.00  0.00    +0.000 OA
ATOM     25  H   UNL     1      23.153  39.545  47.515  0.00  0.00    +0.000 HD
BRANCH  23  26
ATOM     26  C   UNL     1      24.606  41.550  48.270  0.00  0.00    +0.000 A 
ATOM     27  C   UNL     1      25.766  42.124  48.808  0.00  0.00    +0.000 A 
ATOM     28  C   UNL     1      23.359  41.841  48.831  0.00  0.00    +0.000 A 
ATOM     29  C   UNL     1      25.682  43.011  49.879  0.00  0.00    +0.000 A 
ATOM     30  C   UNL     1      23.279  42.739  49.902  0.00  0.00    +0.000 A 
ATOM     31  C   UNL     1      24.437  43.330  50.414  0.00  0.00    +0.000 A 
ENDBRANCH  23  26
ENDBRANCH   2  22
TORSDOF 6
ENDMDL
MODEL 6
REMARK VINA RESULT:      -6.0      3.141      7.234
REMARK  Name = 323164
REMARK  6 active torsions:
REMARK  status: ('A' for Active; 'I' for Inactive)
REMARK    1  A    between atoms: C_3  and  O_5
REMARK    2  A    between atoms: O_5  and  C_8
REMARK    3  A    between atoms: C_14  and  C_15
REMARK    4  A    between atoms: C_16  and  N_17
REMARK    5  A    between atoms: C_16  and  C_18
REMARK    6  A    between atoms: C_19  and  C_23
REMARK                            x       y       z     vdW  Elec       q    Type
REMARK                         _______ _______ _______ _____ _____    ______ ____
ROOT
ATOM      1  C   UNL     1      23.991  40.741  45.906  0.00  0.00    +0.000 C 
ATOM      2  C   UNL     1      23.799  41.630  46.898  0.00  0.00    +0.000 C 
ENDROOT
BRANCH   1   8
ATOM      3  C   UNL     1      20.819  39.349  43.430  0.00  0.00    +0.000 A 
ATOM      4  C   UNL     1      21.563  38.426  44.172  0.00  0.00    +0.000 A 
ATOM      5  C   UNL     1      21.284  40.657  43.302  0.00  0.00    +0.000 A 
ATOM      6  C   UNL     1      22.680  38.862  44.903  0.00  0.00    +0.000 A 
ATOM      7  C   UNL     1      22.375  41.096  44.056  0.00  0.00    +0.000 A 
ATOM      8  C   UNL     1      23.056  40.211  44.897  0.00  0.00    +0.000 A 
BRANCH   3   9
ATOM      9  O   UNL     1      19.627  38.923  42.874  0.00  0.00    +0.000 OA
BRANCH   9  12
ATOM     10 BR   UNL     1      17.875  41.488  43.049  0.00  0.00    +0.000 Br
ATOM     11  C   UNL     1      17.675  39.832  43.954  0.00  0.00    +0.000 A 
ATOM     12  C   UNL     1      18.543  38.756  43.726  0.00  0.00    +0.000 A 
ATOM     13  C   UNL     1      16.616  39.709  44.865  0.00  0.00    +0.000 A 
ATOM     14  C   UNL     1      18.269  37.530  44.354  0.00  0.00    +0.000 A 
ATOM     15  C   UNL     1      16.403  38.504  45.535  0.00  0.00    +0.000 A 
ATOM     16  C   UNL     1      17.222  37.410  45.270  0.00  0.00    +0.000 A 
ENDBRANCH   9  12
ENDBRANCH   3   9
ENDBRANCH   1   8
BRANCH   2  17
ATOM     17  C   UNL     1      24.956  41.825  47.844  0.00  0.00    +0.000 C 
ATOM     18  O   UNL     1      26.134  41.805  47.508  0.00  0.00    +0.000 OA
ATOM     19  N   UNL     1      24.600  42.084  49.138  0.00  0.00    +0.000 N 
ATOM     20  H   UNL     1      23.650  42.097  49.394  0.00  0.00    +0.000 HD
ATOM     21  H   UNL     1      25.295  42.259  49.814  0.00  0.00    +0.000 HD
ENDBRANCH   2  17
BRANCH   2  22
ATOM     22  N   UNL     1      22.645  42.365  47.120  0.00  0.00    +0.000 N 
ATOM     23  C   UNL     1      21.436  41.735  47.377  0.00  0.00    +0.000 C 
ATOM     24  O   UNL     1      21.268  40.526  47.325  0.00  0.00    +0.000 OA
ATOM     25  H   UNL     1      22.685  43.348  47.094  0.00  0.00    +0.000 HD
BRANCH  23  26
ATOM     26  C   UNL     1      20.258  42.611  47.606  0.00  0.00    +0.000 A 
ATOM     27  C   UNL     1      19.639  43.162  46.475  0.00  0.00    +0.000 A 
ATOM     28  C   UNL     1      19.695  42.803  48.871  0.00  0.00    +0.000 A 
ATOM     29  C   UNL     1      18.447  43.873  46.599  0.00  0.00    +0.000 A 
ATOM     30  C   UNL     1      18.494  43.510  48.989  0.00  0.00    +0.000 A 
ATOM     31  C   UNL     1      17.867  44.032  47.855  0.00  0.00    +0.000 A 
ENDBRANCH  23  26
ENDBRANCH   2  22
TORSDOF 6
ENDMDL
