MODEL 1
REMARK VINA RESULT:      -7.9      0.000      0.000
REMARK  Name = 321366
REMARK  7 active torsions:
REMARK  status: ('A' for Active; 'I' for Inactive)
REMARK    1  A    between atoms: C_3  and  O_5
REMARK    2  A    between atoms: O_5  and  C_8
REMARK    3  A    between atoms: C_14  and  C_15
REMARK    4  A    between atoms: CA_16  and  N_17
REMARK    5  A    between atoms: CA_16  and  C_18
REMARK    6  A    between atoms: C_19  and  C_23
REMARK    7  A    between atoms: C_23  and  C_24
REMARK                            x       y       z     vdW  Elec       q    Type
REMARK                         _______ _______ _______ _____ _____    ______ ____
ROOT
ATOM      1  C   UNL     1      25.519  40.611  46.731  0.00  0.00    +0.000 C 
ATOM      2  CA  UNL     1      25.296  41.642  47.556  0.00  0.00    +0.000 C 
ENDROOT
BRANCH   1   8
ATOM      3  C   UNL     1      22.421  39.301  44.179  0.00  0.00    +0.000 A 
ATOM      4  C   UNL     1      22.830  38.482  45.232  0.00  0.00    +0.000 A 
ATOM      5  C   UNL     1      23.212  40.388  43.794  0.00  0.00    +0.000 A 
ATOM      6  C   UNL     1      23.939  38.843  46.004  0.00  0.00    +0.000 A 
ATOM      7  C   UNL     1      24.298  40.767  44.584  0.00  0.00    +0.000 A 
ATOM      8  C   UNL     1      24.632  40.024  45.723  0.00  0.00    +0.000 A 
BRANCH   3   9
ATOM      9  O   UNL     1      21.219  39.005  43.573  0.00  0.00    +0.000 OA
BRANCH   9  12
ATOM     10 BR   UNL     1      18.396  37.818  43.914  0.00  0.00    +0.000 Br
ATOM     11  C   UNL     1      18.907  39.621  43.616  0.00  0.00    +0.000 A 
ATOM     12  C   UNL     1      20.252  39.996  43.513  0.00  0.00    +0.000 A 
ATOM     13  C   UNL     1      17.893  40.580  43.503  0.00  0.00    +0.000 A 
ATOM     14  C   UNL     1      20.564  41.359  43.388  0.00  0.00    +0.000 A 
ATOM     15  C   UNL     1      18.217  41.923  43.305  0.00  0.00    +0.000 A 
ATOM     16  C   UNL     1      19.553  42.314  43.260  0.00  0.00    +0.000 A 
ENDBRANCH   9  12
ENDBRANCH   3   9
ENDBRANCH   1   8
BRANCH   2  17
ATOM     17  N   UNL     1      24.155  42.426  47.549  0.00  0.00    +0.000 N 
ATOM     18  C   UNL     1      22.937  41.904  47.969  0.00  0.00    +0.000 C 
ATOM     19  O   UNL     1      22.816  40.766  48.425  0.00  0.00    +0.000 OA
ATOM     20  H   UNL     1      24.206  43.361  47.246  0.00  0.00    +0.000 HD
BRANCH  18  21
ATOM     21  C   UNL     1      21.734  42.799  47.696  0.00  0.00    +0.000 C 
BRANCH  21  22
ATOM     22  C   UNL     1      20.442  42.066  47.432  0.00  0.00    +0.000 A 
ATOM     23  C   UNL     1      20.477  40.697  47.121  0.00  0.00    +0.000 A 
ATOM     24  C   UNL     1      19.194  42.691  47.578  0.00  0.00    +0.000 A 
ATOM     25  C   UNL     1      19.295  39.978  46.924  0.00  0.00    +0.000 A 
ATOM     26  C   UNL     1      18.012  41.974  47.378  0.00  0.00    +0.000 A 
ATOM     27  C   UNL     1      18.067  40.622  47.047  0.00  0.00    +0.000 A 
ATOM     28 BR   UNL     1      16.466  39.653  46.780  0.00  0.00    +0.000 Br
ENDBRANCH  21  22
ENDBRANCH  18  21
ENDBRANCH   2  17
BRANCH   2  29
ATOM     29  C   UNL     1      26.337  41.865  48.615  0.00  0.00    +0.000 C 
ATOM     30  O   UNL     1      27.404  41.285  48.667  0.00  0.00    +0.000 OA
ATOM     31  OXT UNL     1      25.928  42.761  49.539  0.00  0.00    +0.000 OA
ENDBRANCH   2  29
TORSDOF 7
ENDMDL
MODEL 2
REMARK VINA RESULT:      -7.1      3.220      6.760
REMARK  Name = 321366
REMARK  7 active torsions:
REMARK  status: ('A' for Active; 'I' for Inactive)
REMARK    1  A    between atoms: C_3  and  O_5
REMARK    2  A    between atoms: O_5  and  C_8
REMARK    3  A    between atoms: C_14  and  C_15
REMARK    4  A    between atoms: CA_16  and  N_17
REMARK    5  A    between atoms: CA_16  and  C_18
REMARK    6  A    between atoms: C_19  and  C_23
REMARK    7  A    between atoms: C_23  and  C_24
REMARK                            x       y       z     vdW  Elec       q    Type
REMARK                         _______ _______ _______ _____ _____    ______ ____
ROOT
ATOM      1  C   UNL     1      20.287  42.294  43.414  0.00  0.00    +0.000 C 
ATOM      2  CA  UNL     1      18.967  42.071  43.384  0.00  0.00    +0.000 C 
ENDROOT
BRANCH   1   8
ATOM      3  C   UNL     1      22.471  41.175  46.849  0.00  0.00    +0.000 A 
ATOM      4  C   UNL     1      22.107  42.512  46.677  0.00  0.00    +0.000 A 
ATOM      5  C   UNL     1      22.380  40.284  45.776  0.00  0.00    +0.000 A 
ATOM      6  C   UNL     1      21.499  42.919  45.486  0.00  0.00    +0.000 A 
ATOM      7  C   UNL     1      21.743  40.682  44.600  0.00  0.00    +0.000 A 
ATOM      8  C   UNL     1      21.253  41.988  44.472  0.00  0.00    +0.000 A 
BRANCH   3   9
ATOM      9  O   UNL     1      22.890  40.787  48.104  0.00  0.00    +0.000 OA
BRANCH   9  12
ATOM     10 BR   UNL     1      25.648  40.634  46.740  0.00  0.00    +0.000 Br
ATOM     11  C   UNL     1      25.133  41.599  48.290  0.00  0.00    +0.000 A 
ATOM     12  C   UNL     1      23.815  41.582  48.762  0.00  0.00    +0.000 A 
ATOM     13  C   UNL     1      26.115  42.341  48.957  0.00  0.00    +0.000 A 
ATOM     14  C   UNL     1      23.481  42.393  49.858  0.00  0.00    +0.000 A 
ATOM     15  C   UNL     1      25.783  43.086  50.090  0.00  0.00    +0.000 A 
ATOM     16  C   UNL     1      24.464  43.122  50.533  0.00  0.00    +0.000 A 
ENDBRANCH   9  12
ENDBRANCH   3   9
ENDBRANCH   1   8
BRANCH   2  17
ATOM     17  N   UNL     1      18.255  41.406  44.368  0.00  0.00    +0.000 N 
ATOM     18  C   UNL     1      17.876  42.065  45.531  0.00  0.00    +0.000 C 
ATOM     19  O   UNL     1      18.084  43.265  45.721  0.00  0.00    +0.000 OA
ATOM     20  H   UNL     1      18.016  40.460  44.243  0.00  0.00    +0.000 HD
BRANCH  18  21
ATOM     21  C   UNL     1      17.304  41.160  46.616  0.00  0.00    +0.000 C 
BRANCH  21  22
ATOM     22  C   UNL     1      17.177  39.706  46.231  0.00  0.00    +0.000 A 
ATOM     23  C   UNL     1      15.990  39.016  46.526  0.00  0.00    +0.000 A 
ATOM     24  C   UNL     1      18.176  39.044  45.502  0.00  0.00    +0.000 A 
ATOM     25  C   UNL     1      15.820  37.686  46.136  0.00  0.00    +0.000 A 
ATOM     26  C   UNL     1      18.009  37.713  45.114  0.00  0.00    +0.000 A 
ATOM     27  C   UNL     1      16.834  37.037  45.436  0.00  0.00    +0.000 A 
ATOM     28 BR   UNL     1      16.608  35.237  44.908  0.00  0.00    +0.000 Br
ENDBRANCH  21  22
ENDBRANCH  18  21
ENDBRANCH   2  17
BRANCH   2  29
ATOM     29  C   UNL     1      18.229  42.691  42.233  0.00  0.00    +0.000 C 
ATOM     30  O   UNL     1      18.464  43.792  41.774  0.00  0.00    +0.000 OA
ATOM     31  OXT UNL     1      17.231  41.896  41.790  0.00  0.00    +0.000 OA
ENDBRANCH   2  29
TORSDOF 7
ENDMDL
MODEL 3
REMARK VINA RESULT:      -6.6      1.225      1.757
REMARK  Name = 321366
REMARK  7 active torsions:
REMARK  status: ('A' for Active; 'I' for Inactive)
REMARK    1  A    between atoms: C_3  and  O_5
REMARK    2  A    between atoms: O_5  and  C_8
REMARK    3  A    between atoms: C_14  and  C_15
REMARK    4  A    between atoms: CA_16  and  N_17
REMARK    5  A    between atoms: CA_16  and  C_18
REMARK    6  A    between atoms: C_19  and  C_23
REMARK    7  A    between atoms: C_23  and  C_24
REMARK                            x       y       z     vdW  Elec       q    Type
REMARK                         _______ _______ _______ _____ _____    ______ ____
ROOT
ATOM      1  C   UNL     1      24.138  41.162  47.229  0.00  0.00    +0.000 C 
ATOM      2  CA  UNL     1      23.586  41.888  48.209  0.00  0.00    +0.000 C 
ENDROOT
BRANCH   1   8
ATOM      3  C   UNL     1      21.767  39.628  44.092  0.00  0.00    +0.000 A 
ATOM      4  C   UNL     1      21.576  39.148  45.388  0.00  0.00    +0.000 A 
ATOM      5  C   UNL     1      22.909  40.374  43.785  0.00  0.00    +0.000 A 
ATOM      6  C   UNL     1      22.440  39.550  46.412  0.00  0.00    +0.000 A 
ATOM      7  C   UNL     1      23.751  40.802  44.812  0.00  0.00    +0.000 A 
ATOM      8  C   UNL     1      23.487  40.434  46.137  0.00  0.00    +0.000 A 
BRANCH   3   9
ATOM      9  O   UNL     1      20.784  39.357  43.163  0.00  0.00    +0.000 OA
BRANCH   9  12
ATOM     10 BR   UNL     1      18.331  37.677  43.973  0.00  0.00    +0.000 Br
ATOM     11  C   UNL     1      18.419  39.511  43.494  0.00  0.00    +0.000 A 
ATOM     12  C   UNL     1      19.635  40.131  43.179  0.00  0.00    +0.000 A 
ATOM     13  C   UNL     1      17.224  40.239  43.467  0.00  0.00    +0.000 A 
ATOM     14  C   UNL     1      19.641  41.512  42.927  0.00  0.00    +0.000 A 
ATOM     15  C   UNL     1      17.237  41.597  43.142  0.00  0.00    +0.000 A 
ATOM     16  C   UNL     1      18.447  42.235  42.884  0.00  0.00    +0.000 A 
ENDBRANCH   9  12
ENDBRANCH   3   9
ENDBRANCH   1   8
BRANCH   2  17
ATOM     17  N   UNL     1      22.232  42.158  48.326  0.00  0.00    +0.000 N 
ATOM     18  C   UNL     1      21.536  42.739  47.273  0.00  0.00    +0.000 C 
ATOM     19  O   UNL     1      22.050  42.978  46.179  0.00  0.00    +0.000 OA
ATOM     20  H   UNL     1      21.760  41.936  49.160  0.00  0.00    +0.000 HD
BRANCH  18  21
ATOM     21  C   UNL     1      20.120  43.185  47.618  0.00  0.00    +0.000 C 
BRANCH  21  22
ATOM     22  C   UNL     1      19.051  42.142  47.395  0.00  0.00    +0.000 A 
ATOM     23  C   UNL     1      17.745  42.551  47.079  0.00  0.00    +0.000 A 
ATOM     24  C   UNL     1      19.344  40.771  47.403  0.00  0.00    +0.000 A 
ATOM     25  C   UNL     1      16.746  41.610  46.816  0.00  0.00    +0.000 A 
ATOM     26  C   UNL     1      18.345  39.829  47.143  0.00  0.00    +0.000 A 
ATOM     27  C   UNL     1      17.050  40.252  46.855  0.00  0.00    +0.000 A 
ATOM     28 BR   UNL     1      15.701  38.977  46.499  0.00  0.00    +0.000 Br
ENDBRANCH  21  22
ENDBRANCH  18  21
ENDBRANCH   2  17
BRANCH   2  29
ATOM     29  C   UNL     1      24.522  42.338  49.293  0.00  0.00    +0.000 C 
ATOM     30  O   UNL     1      24.172  42.728  50.390  0.00  0.00    +0.000 OA
ATOM     31  OXT UNL     1      25.810  42.302  48.891  0.00  0.00    +0.000 OA
ENDBRANCH   2  29
TORSDOF 7
ENDMDL
MODEL 4
REMARK VINA RESULT:      -6.1      1.990      3.188
REMARK  Name = 321366
REMARK  7 active torsions:
REMARK  status: ('A' for Active; 'I' for Inactive)
REMARK    1  A    between atoms: C_3  and  O_5
REMARK    2  A    between atoms: O_5  and  C_8
REMARK    3  A    between atoms: C_14  and  C_15
REMARK    4  A    between atoms: CA_16  and  N_17
REMARK    5  A    between atoms: CA_16  and  C_18
REMARK    6  A    between atoms: C_19  and  C_23
REMARK    7  A    between atoms: C_23  and  C_24
REMARK                            x       y       z     vdW  Elec       q    Type
REMARK                         _______ _______ _______ _____ _____    ______ ____
ROOT
ATOM      1  C   UNL     1      23.455  40.213  44.614  0.00  0.00    +0.000 C 
ATOM      2  CA  UNL     1      23.801  40.964  45.667  0.00  0.00    +0.000 C 
ENDROOT
BRANCH   1   8
ATOM      3  C   UNL     1      19.370  39.789  43.635  0.00  0.00    +0.000 A 
ATOM      4  C   UNL     1      20.069  38.691  44.138  0.00  0.00    +0.000 A 
ATOM      5  C   UNL     1      20.069  40.913  43.185  0.00  0.00    +0.000 A 
ATOM      6  C   UNL     1      21.449  38.779  44.343  0.00  0.00    +0.000 A 
ATOM      7  C   UNL     1      21.440  41.014  43.421  0.00  0.00    +0.000 A 
ATOM      8  C   UNL     1      22.125  39.967  44.050  0.00  0.00    +0.000 A 
BRANCH   3   9
ATOM      9  O   UNL     1      17.993  39.718  43.629  0.00  0.00    +0.000 OA
BRANCH   9  12
ATOM     10 BR   UNL     1      17.580  36.690  44.018  0.00  0.00    +0.000 Br
ATOM     11  C   UNL     1      17.047  38.123  45.141  0.00  0.00    +0.000 A 
ATOM     12  C   UNL     1      17.345  39.454  44.825  0.00  0.00    +0.000 A 
ATOM     13  C   UNL     1      16.342  37.812  46.310  0.00  0.00    +0.000 A 
ATOM     14  C   UNL     1      17.005  40.458  45.747  0.00  0.00    +0.000 A 
ATOM     15  C   UNL     1      15.946  38.828  47.181  0.00  0.00    +0.000 A 
ATOM     16  C   UNL     1      16.288  40.150  46.905  0.00  0.00    +0.000 A 
ENDBRANCH   9  12
ENDBRANCH   3   9
ENDBRANCH   1   8
BRANCH   2  17
ATOM     17  N   UNL     1      22.925  41.746  46.402  0.00  0.00    +0.000 N 
ATOM     18  C   UNL     1      22.607  41.408  47.711  0.00  0.00    +0.000 C 
ATOM     19  O   UNL     1      23.123  40.459  48.304  0.00  0.00    +0.000 OA
ATOM     20  H   UNL     1      22.525  42.547  45.993  0.00  0.00    +0.000 HD
BRANCH  18  21
ATOM     21  C   UNL     1      21.466  42.218  48.317  0.00  0.00    +0.000 C 
BRANCH  21  22
ATOM     22  C   UNL     1      20.348  42.557  47.362  0.00  0.00    +0.000 A 
ATOM     23  C   UNL     1      19.034  42.660  47.847  0.00  0.00    +0.000 A 
ATOM     24  C   UNL     1      20.593  42.865  46.015  0.00  0.00    +0.000 A 
ATOM     25  C   UNL     1      17.985  43.023  46.999  0.00  0.00    +0.000 A 
ATOM     26  C   UNL     1      19.545  43.225  45.165  0.00  0.00    +0.000 A 
ATOM     27  C   UNL     1      18.245  43.299  45.659  0.00  0.00    +0.000 A 
ATOM     28 BR   UNL     1      16.828  43.791  44.509  0.00  0.00    +0.000 Br
ENDBRANCH  21  22
ENDBRANCH  18  21
ENDBRANCH   2  17
BRANCH   2  29
ATOM     29  C   UNL     1      25.229  40.843  46.112  0.00  0.00    +0.000 C 
ATOM     30  O   UNL     1      25.876  41.744  46.610  0.00  0.00    +0.000 OA
ATOM     31  OXT UNL     1      25.734  39.619  45.851  0.00  0.00    +0.000 OA
ENDBRANCH   2  29
TORSDOF 7
ENDMDL
MODEL 5
REMARK VINA RESULT:      -6.1      1.722      3.971
REMARK  Name = 321366
REMARK  7 active torsions:
REMARK  status: ('A' for Active; 'I' for Inactive)
REMARK    1  A    between atoms: C_3  and  O_5
REMARK    2  A    between atoms: O_5  and  C_8
REMARK    3  A    between atoms: C_14  and  C_15
REMARK    4  A    between atoms: CA_16  and  N_17
REMARK    5  A    between atoms: CA_16  and  C_18
REMARK    6  A    between atoms: C_19  and  C_23
REMARK    7  A    between atoms: C_23  and  C_24
REMARK                            x       y       z     vdW  Elec       q    Type
REMARK                         _______ _______ _______ _____ _____    ______ ____
ROOT
ATOM      1  C   UNL     1      22.699  42.510  49.216  0.00  0.00    +0.000 C 
ATOM      2  CA  UNL     1      23.936  42.003  49.152  0.00  0.00    +0.000 C 
ENDROOT
BRANCH   1   8
ATOM      3  C   UNL     1      19.161  41.418  47.189  0.00  0.00    +0.000 A 
ATOM      4  C   UNL     1      20.349  40.747  46.897  0.00  0.00    +0.000 A 
ATOM      5  C   UNL     1      19.195  42.615  47.909  0.00  0.00    +0.000 A 
ATOM      6  C   UNL     1      21.551  41.183  47.463  0.00  0.00    +0.000 A 
ATOM      7  C   UNL     1      20.388  43.031  48.501  0.00  0.00    +0.000 A 
ATOM      8  C   UNL     1      21.560  42.286  48.322  0.00  0.00    +0.000 A 
BRANCH   3   9
ATOM      9  O   UNL     1      17.983  40.839  46.762  0.00  0.00    +0.000 OA
BRANCH   9  12
ATOM     10 BR   UNL     1      16.502  38.322  45.782  0.00  0.00    +0.000 Br
ATOM     11  C   UNL     1      16.995  39.874  44.808  0.00  0.00    +0.000 A 
ATOM     12  C   UNL     1      17.645  40.951  45.423  0.00  0.00    +0.000 A 
ATOM     13  C   UNL     1      16.685  39.919  43.444  0.00  0.00    +0.000 A 
ATOM     14  C   UNL     1      17.896  42.108  44.667  0.00  0.00    +0.000 A 
ATOM     15  C   UNL     1      17.007  41.047  42.688  0.00  0.00    +0.000 A 
ATOM     16  C   UNL     1      17.601  42.146  43.302  0.00  0.00    +0.000 A 
ENDBRANCH   9  12
ENDBRANCH   3   9
ENDBRANCH   1   8
BRANCH   2  17
ATOM     17  N   UNL     1      24.359  41.066  48.224  0.00  0.00    +0.000 N 
ATOM     18  C   UNL     1      25.306  41.403  47.264  0.00  0.00    +0.000 C 
ATOM     19  O   UNL     1      25.861  42.502  47.224  0.00  0.00    +0.000 OA
ATOM     20  H   UNL     1      23.988  40.156  48.245  0.00  0.00    +0.000 HD
BRANCH  18  21
ATOM     21  C   UNL     1      25.507  40.355  46.175  0.00  0.00    +0.000 C 
BRANCH  21  22
ATOM     22  C   UNL     1      24.276  40.036  45.363  0.00  0.00    +0.000 A 
ATOM     23  C   UNL     1      23.688  38.765  45.471  0.00  0.00    +0.000 A 
ATOM     24  C   UNL     1      23.642  41.004  44.569  0.00  0.00    +0.000 A 
ATOM     25  C   UNL     1      22.519  38.456  44.772  0.00  0.00    +0.000 A 
ATOM     26  C   UNL     1      22.474  40.696  43.868  0.00  0.00    +0.000 A 
ATOM     27  C   UNL     1      21.919  39.422  43.968  0.00  0.00    +0.000 A 
ATOM     28 BR   UNL     1      20.337  39.007  43.022  0.00  0.00    +0.000 Br
ENDBRANCH  21  22
ENDBRANCH  18  21
ENDBRANCH   2  17
BRANCH   2  29
ATOM     29  C   UNL     1      24.932  42.594  50.108  0.00  0.00    +0.000 C 
ATOM     30  O   UNL     1      26.108  42.772  49.858  0.00  0.00    +0.000 OA
ATOM     31  OXT UNL     1      24.375  42.865  51.308  0.00  0.00    +0.000 OA
ENDBRANCH   2  29
TORSDOF 7
ENDMDL
