MODEL 1
REMARK VINA RESULT:      -7.9      0.000      0.000
REMARK  Name = 323201
REMARK  8 active torsions:
REMARK  status: ('A' for Active; 'I' for Inactive)
REMARK    1  A    between atoms: C_3  and  O_5
REMARK    2  A    between atoms: O_5  and  C_8
REMARK    3  A    between atoms: C_15  and  C_16
REMARK    4  A    between atoms: CA_17  and  N_18
REMARK    5  A    between atoms: CA_17  and  C_19
REMARK    6  A    between atoms: C_20  and  C_24
REMARK    7  A    between atoms: C_24  and  C_25
REMARK    8  A    between atoms: C_25  and  C_26
REMARK                            x       y       z     vdW  Elec       q    Type
REMARK                         _______ _______ _______ _____ _____    ______ ____
ROOT
ATOM      1  C   UNL     1      22.594  42.226  48.298  0.00  0.00    +0.000 C 
ATOM      2  CA  UNL     1      23.708  41.711  47.741  0.00  0.00    +0.000 C 
ENDROOT
BRANCH   1   8
ATOM      3  C   UNL     1      18.555  41.516  47.204  0.00  0.00    +0.000 A 
ATOM      4  C   UNL     1      18.866  42.630  47.986  0.00  0.00    +0.000 A 
ATOM      5  C   UNL     1      19.524  40.543  46.962  0.00  0.00    +0.000 A 
ATOM      6  C   UNL     1      20.182  42.847  48.395  0.00  0.00    +0.000 A 
ATOM      7  C   UNL     1      20.840  40.755  47.377  0.00  0.00    +0.000 A 
ATOM      8  C   UNL     1      21.184  41.927  48.063  0.00  0.00    +0.000 A 
BRANCH   3   9
ATOM      9  O   UNL     1      17.312  41.273  46.672  0.00  0.00    +0.000 OA
BRANCH   9  12
ATOM     10 BR   UNL     1      16.650  38.485  45.636  0.00  0.00    +0.000 Br
ATOM     11  C   UNL     1      16.810  40.109  44.664  0.00  0.00    +0.000 A 
ATOM     12  C   UNL     1      17.128  41.316  45.304  0.00  0.00    +0.000 A 
ATOM     13  C   UNL     1      16.606  40.070  43.284  0.00  0.00    +0.000 A 
ATOM     14  C   UNL     1      17.302  42.475  44.530  0.00  0.00    +0.000 A 
ATOM     15  C   UNL     1      16.726  41.240  42.545  0.00  0.00    +0.000 A 
ATOM     16  C   UNL     1      17.072  42.440  43.153  0.00  0.00    +0.000 A 
ATOM     17  F   UNL     1      16.514  41.209  41.224  0.00  0.00    +0.000 F 
ENDBRANCH   9  12
ENDBRANCH   3   9
ENDBRANCH   1   8
BRANCH   2  18
ATOM     18  N   UNL     1      23.810  40.809  46.690  0.00  0.00    +0.000 N 
ATOM     19  C   UNL     1      23.758  39.432  46.792  0.00  0.00    +0.000 C 
ATOM     20  O   UNL     1      23.537  38.813  47.828  0.00  0.00    +0.000 OA
ATOM     21  H   UNL     1      23.931  41.184  45.787  0.00  0.00    +0.000 HD
BRANCH  19  22
ATOM     22  C   UNL     1      23.862  38.698  45.470  0.00  0.00    +0.000 C 
BRANCH  22  23
ATOM     23  C   UNL     1      23.891  39.746  44.355  0.00  0.00    +0.000 C 
BRANCH  23  24
ATOM     24  C   UNL     1      22.570  39.922  43.618  0.00  0.00    +0.000 C 
ATOM     25  C   UNL     1      21.938  41.282  43.920  0.00  0.00    +0.000 C 
ATOM     26  C   UNL     1      21.472  38.955  44.049  0.00  0.00    +0.000 C 
ATOM     27  C   UNL     1      20.463  41.116  43.573  0.00  0.00    +0.000 C 
ATOM     28  C   UNL     1      20.201  39.614  43.528  0.00  0.00    +0.000 C 
ENDBRANCH  23  24
ENDBRANCH  22  23
ENDBRANCH  19  22
ENDBRANCH   2  18
BRANCH   2  29
ATOM     29  C   UNL     1      24.990  42.178  48.384  0.00  0.00    +0.000 C 
ATOM     30  O   UNL     1      25.078  42.734  49.464  0.00  0.00    +0.000 OA
ATOM     31  OXT UNL     1      26.067  41.905  47.609  0.00  0.00    +0.000 OA
ENDBRANCH   2  29
TORSDOF 8
ENDMDL
MODEL 2
REMARK VINA RESULT:      -7.2      3.736      7.610
REMARK  Name = 323201
REMARK  8 active torsions:
REMARK  status: ('A' for Active; 'I' for Inactive)
REMARK    1  A    between atoms: C_3  and  O_5
REMARK    2  A    between atoms: O_5  and  C_8
REMARK    3  A    between atoms: C_15  and  C_16
REMARK    4  A    between atoms: CA_17  and  N_18
REMARK    5  A    between atoms: CA_17  and  C_19
REMARK    6  A    between atoms: C_20  and  C_24
REMARK    7  A    between atoms: C_24  and  C_25
REMARK    8  A    between atoms: C_25  and  C_26
REMARK                            x       y       z     vdW  Elec       q    Type
REMARK                         _______ _______ _______ _____ _____    ______ ____
ROOT
ATOM      1  C   UNL     1      18.811  41.313  42.798  0.00  0.00    +0.000 C 
ATOM      2  CA  UNL     1      17.516  41.032  43.045  0.00  0.00    +0.000 C 
ENDROOT
BRANCH   1   8
ATOM      3  C   UNL     1      22.015  40.515  45.466  0.00  0.00    +0.000 A 
ATOM      4  C   UNL     1      21.432  41.785  45.457  0.00  0.00    +0.000 A 
ATOM      5  C   UNL     1      21.688  39.592  44.473  0.00  0.00    +0.000 A 
ATOM      6  C   UNL     1      20.413  42.075  44.550  0.00  0.00    +0.000 A 
ATOM      7  C   UNL     1      20.673  39.884  43.560  0.00  0.00    +0.000 A 
ATOM      8  C   UNL     1      20.004  41.113  43.617  0.00  0.00    +0.000 A 
BRANCH   3   9
ATOM      9  O   UNL     1      22.951  40.107  46.385  0.00  0.00    +0.000 OA
BRANCH   9  12
ATOM     10 BR   UNL     1      25.964  40.513  46.174  0.00  0.00    +0.000 Br
ATOM     11  C   UNL     1      24.743  41.277  47.413  0.00  0.00    +0.000 A 
ATOM     12  C   UNL     1      23.373  40.977  47.371  0.00  0.00    +0.000 A 
ATOM     13  C   UNL     1      25.249  42.151  48.377  0.00  0.00    +0.000 A 
ATOM     14  C   UNL     1      22.525  41.514  48.352  0.00  0.00    +0.000 A 
ATOM     15  C   UNL     1      24.382  42.717  49.302  0.00  0.00    +0.000 A 
ATOM     16  C   UNL     1      23.028  42.408  49.301  0.00  0.00    +0.000 A 
ATOM     17  F   UNL     1      24.861  43.568  50.218  0.00  0.00    +0.000 F 
ENDBRANCH   9  12
ENDBRANCH   3   9
ENDBRANCH   1   8
BRANCH   2  18
ATOM     18  N   UNL     1      16.944  40.563  44.221  0.00  0.00    +0.000 N 
ATOM     19  C   UNL     1      17.004  39.267  44.694  0.00  0.00    +0.000 C 
ATOM     20  O   UNL     1      17.642  38.358  44.172  0.00  0.00    +0.000 OA
ATOM     21  H   UNL     1      16.449  41.215  44.768  0.00  0.00    +0.000 HD
BRANCH  19  22
ATOM     22  C   UNL     1      16.315  39.051  46.027  0.00  0.00    +0.000 C 
BRANCH  22  23
ATOM     23  C   UNL     1      17.170  39.714  47.108  0.00  0.00    +0.000 C 
BRANCH  23  24
ATOM     24  C   UNL     1      17.670  41.108  46.752  0.00  0.00    +0.000 C 
ATOM     25  C   UNL     1      18.727  41.593  47.745  0.00  0.00    +0.000 C 
ATOM     26  C   UNL     1      16.612  42.202  46.848  0.00  0.00    +0.000 C 
ATOM     27  C   UNL     1      18.742  43.109  47.594  0.00  0.00    +0.000 C 
ATOM     28  C   UNL     1      17.437  43.482  46.897  0.00  0.00    +0.000 C 
ENDBRANCH  23  24
ENDBRANCH  22  23
ENDBRANCH  19  22
ENDBRANCH   2  18
BRANCH   2  29
ATOM     29  C   UNL     1      16.605  41.243  41.863  0.00  0.00    +0.000 C 
ATOM     30  O   UNL     1      15.452  40.860  41.780  0.00  0.00    +0.000 OA
ATOM     31  OXT UNL     1      17.224  41.926  40.869  0.00  0.00    +0.000 OA
ENDBRANCH   2  29
TORSDOF 8
ENDMDL
MODEL 3
REMARK VINA RESULT:      -7.1      1.912      2.608
REMARK  Name = 323201
REMARK  8 active torsions:
REMARK  status: ('A' for Active; 'I' for Inactive)
REMARK    1  A    between atoms: C_3  and  O_5
REMARK    2  A    between atoms: O_5  and  C_8
REMARK    3  A    between atoms: C_15  and  C_16
REMARK    4  A    between atoms: CA_17  and  N_18
REMARK    5  A    between atoms: CA_17  and  C_19
REMARK    6  A    between atoms: C_20  and  C_24
REMARK    7  A    between atoms: C_24  and  C_25
REMARK    8  A    between atoms: C_25  and  C_26
REMARK                            x       y       z     vdW  Elec       q    Type
REMARK                         _______ _______ _______ _____ _____    ______ ____
ROOT
ATOM      1  C   UNL     1      22.342  42.824  48.511  0.00  0.00    +0.000 C 
ATOM      2  CA  UNL     1      23.289  41.889  48.726  0.00  0.00    +0.000 C 
ENDROOT
BRANCH   1   8
ATOM      3  C   UNL     1      18.657  42.187  46.502  0.00  0.00    +0.000 A 
ATOM      4  C   UNL     1      19.842  42.221  45.763  0.00  0.00    +0.000 A 
ATOM      5  C   UNL     1      18.663  42.562  47.845  0.00  0.00    +0.000 A 
ATOM      6  C   UNL     1      21.053  42.479  46.404  0.00  0.00    +0.000 A 
ATOM      7  C   UNL     1      19.874  42.829  48.486  0.00  0.00    +0.000 A 
ATOM      8  C   UNL     1      21.080  42.752  47.778  0.00  0.00    +0.000 A 
BRANCH   3   9
ATOM      9  O   UNL     1      17.435  41.842  45.978  0.00  0.00    +0.000 OA
BRANCH   9  12
ATOM     10 BR   UNL     1      17.583  40.939  43.071  0.00  0.00    +0.000 Br
ATOM     11  C   UNL     1      17.094  39.933  44.607  0.00  0.00    +0.000 A 
ATOM     12  C   UNL     1      17.076  40.512  45.885  0.00  0.00    +0.000 A 
ATOM     13  C   UNL     1      16.748  38.593  44.430  0.00  0.00    +0.000 A 
ATOM     14  C   UNL     1      16.641  39.744  46.976  0.00  0.00    +0.000 A 
ATOM     15  C   UNL     1      16.377  37.835  45.533  0.00  0.00    +0.000 A 
ATOM     16  C   UNL     1      16.319  38.396  46.802  0.00  0.00    +0.000 A 
ATOM     17  F   UNL     1      16.060  36.545  45.369  0.00  0.00    +0.000 F 
ENDBRANCH   9  12
ENDBRANCH   3   9
ENDBRANCH   1   8
BRANCH   2  18
ATOM     18  N   UNL     1      23.369  40.605  48.203  0.00  0.00    +0.000 N 
ATOM     19  C   UNL     1      24.256  40.175  47.235  0.00  0.00    +0.000 C 
ATOM     20  O   UNL     1      25.154  40.857  46.753  0.00  0.00    +0.000 OA
ATOM     21  H   UNL     1      22.735  39.938  48.554  0.00  0.00    +0.000 HD
BRANCH  19  22
ATOM     22  C   UNL     1      24.137  38.705  46.881  0.00  0.00    +0.000 C 
BRANCH  22  23
ATOM     23  C   UNL     1      23.855  38.607  45.381  0.00  0.00    +0.000 C 
BRANCH  23  24
ATOM     24  C   UNL     1      22.732  39.511  44.888  0.00  0.00    +0.000 C 
ATOM     25  C   UNL     1      21.661  38.716  44.141  0.00  0.00    +0.000 C 
ATOM     26  C   UNL     1      23.160  40.536  43.843  0.00  0.00    +0.000 C 
ATOM     27  C   UNL     1      20.926  39.747  43.293  0.00  0.00    +0.000 C 
ATOM     28  C   UNL     1      21.840  40.966  43.215  0.00  0.00    +0.000 C 
ENDBRANCH  23  24
ENDBRANCH  22  23
ENDBRANCH  19  22
ENDBRANCH   2  18
BRANCH   2  29
ATOM     29  C   UNL     1      24.372  42.321  49.682  0.00  0.00    +0.000 C 
ATOM     30  O   UNL     1      25.514  42.610  49.375  0.00  0.00    +0.000 OA
ATOM     31  OXT UNL     1      23.925  42.355  50.961  0.00  0.00    +0.000 OA
ENDBRANCH   2  29
TORSDOF 8
ENDMDL
MODEL 4
REMARK VINA RESULT:      -6.6      3.984      7.675
REMARK  Name = 323201
REMARK  8 active torsions:
REMARK  status: ('A' for Active; 'I' for Inactive)
REMARK    1  A    between atoms: C_3  and  O_5
REMARK    2  A    between atoms: O_5  and  C_8
REMARK    3  A    between atoms: C_15  and  C_16
REMARK    4  A    between atoms: CA_17  and  N_18
REMARK    5  A    between atoms: CA_17  and  C_19
REMARK    6  A    between atoms: C_20  and  C_24
REMARK    7  A    between atoms: C_24  and  C_25
REMARK    8  A    between atoms: C_25  and  C_26
REMARK                            x       y       z     vdW  Elec       q    Type
REMARK                         _______ _______ _______ _____ _____    ______ ____
ROOT
ATOM      1  C   UNL     1      19.914  42.221  43.551  0.00  0.00    +0.000 C 
ATOM      2  CA  UNL     1      18.579  42.046  43.481  0.00  0.00    +0.000 C 
ENDROOT
BRANCH   1   8
ATOM      3  C   UNL     1      22.346  41.016  46.814  0.00  0.00    +0.000 A 
ATOM      4  C   UNL     1      21.903  42.339  46.743  0.00  0.00    +0.000 A 
ATOM      5  C   UNL     1      22.164  40.162  45.727  0.00  0.00    +0.000 A 
ATOM      6  C   UNL     1      21.146  42.760  45.650  0.00  0.00    +0.000 A 
ATOM      7  C   UNL     1      21.413  40.584  44.629  0.00  0.00    +0.000 A 
ATOM      8  C   UNL     1      20.867  41.874  44.601  0.00  0.00    +0.000 A 
BRANCH   3   9
ATOM      9  O   UNL     1      23.009  40.485  47.894  0.00  0.00    +0.000 OA
BRANCH   9  12
ATOM     10 BR   UNL     1      25.791  40.508  46.651  0.00  0.00    +0.000 Br
ATOM     11  C   UNL     1      25.175  41.406  48.207  0.00  0.00    +0.000 A 
ATOM     12  C   UNL     1      23.848  41.282  48.646  0.00  0.00    +0.000 A 
ATOM     13  C   UNL     1      26.085  42.197  48.911  0.00  0.00    +0.000 A 
ATOM     14  C   UNL     1      23.463  41.912  49.840  0.00  0.00    +0.000 A 
ATOM     15  C   UNL     1      25.666  42.858  50.058  0.00  0.00    +0.000 A 
ATOM     16  C   UNL     1      24.367  42.723  50.530  0.00  0.00    +0.000 A 
ATOM     17  F   UNL     1      26.531  43.630  50.726  0.00  0.00    +0.000 F 
ENDBRANCH   9  12
ENDBRANCH   3   9
ENDBRANCH   1   8
BRANCH   2  18
ATOM     18  N   UNL     1      17.718  41.572  44.462  0.00  0.00    +0.000 N 
ATOM     19  C   UNL     1      17.405  42.210  45.647  0.00  0.00    +0.000 C 
ATOM     20  O   UNL     1      17.792  43.330  45.965  0.00  0.00    +0.000 OA
ATOM     21  H   UNL     1      17.290  40.701  44.299  0.00  0.00    +0.000 HD
BRANCH  19  22
ATOM     22  C   UNL     1      16.405  41.472  46.515  0.00  0.00    +0.000 C 
BRANCH  22  23
ATOM     23  C   UNL     1      17.016  40.119  46.884  0.00  0.00    +0.000 C 
BRANCH  23  24
ATOM     24  C   UNL     1      16.877  39.048  45.809  0.00  0.00    +0.000 C 
ATOM     25  C   UNL     1      16.336  37.741  46.389  0.00  0.00    +0.000 C 
ATOM     26  C   UNL     1      18.197  38.602  45.188  0.00  0.00    +0.000 C 
ATOM     27  C   UNL     1      16.734  36.669  45.382  0.00  0.00    +0.000 C 
ATOM     28  C   UNL     1      17.842  37.277  44.526  0.00  0.00    +0.000 C 
ENDBRANCH  23  24
ENDBRANCH  22  23
ENDBRANCH  19  22
ENDBRANCH   2  18
BRANCH   2  29
ATOM     29  C   UNL     1      17.982  42.396  42.141  0.00  0.00    +0.000 C 
ATOM     30  O   UNL     1      18.306  43.344  41.448  0.00  0.00    +0.000 OA
ATOM     31  OXT UNL     1      17.018  41.516  41.777  0.00  0.00    +0.000 OA
ENDBRANCH   2  29
TORSDOF 8
ENDMDL
MODEL 5
REMARK VINA RESULT:      -6.6      3.625      7.761
REMARK  Name = 323201
REMARK  8 active torsions:
REMARK  status: ('A' for Active; 'I' for Inactive)
REMARK    1  A    between atoms: C_3  and  O_5
REMARK    2  A    between atoms: O_5  and  C_8
REMARK    3  A    between atoms: C_15  and  C_16
REMARK    4  A    between atoms: CA_17  and  N_18
REMARK    5  A    between atoms: CA_17  and  C_19
REMARK    6  A    between atoms: C_20  and  C_24
REMARK    7  A    between atoms: C_24  and  C_25
REMARK    8  A    between atoms: C_25  and  C_26
REMARK                            x       y       z     vdW  Elec       q    Type
REMARK                         _______ _______ _______ _____ _____    ______ ____
ROOT
ATOM      1  C   UNL     1      20.061  41.491  43.194  0.00  0.00    +0.000 C 
ATOM      2  CA  UNL     1      18.758  41.607  43.521  0.00  0.00    +0.000 C 
ENDROOT
BRANCH   1   8
ATOM      3  C   UNL     1      23.634  40.478  45.248  0.00  0.00    +0.000 A 
ATOM      4  C   UNL     1      23.154  39.626  44.251  0.00  0.00    +0.000 A 
ATOM      5  C   UNL     1      22.844  41.533  45.703  0.00  0.00    +0.000 A 
ATOM      6  C   UNL     1      21.954  39.922  43.603  0.00  0.00    +0.000 A 
ATOM      7  C   UNL     1      21.639  41.825  45.061  0.00  0.00    +0.000 A 
ATOM      8  C   UNL     1      21.206  41.044  43.983  0.00  0.00    +0.000 A 
BRANCH   3   9
ATOM      9  O   UNL     1      24.850  40.324  45.869  0.00  0.00    +0.000 OA
BRANCH   9  12
ATOM     10 BR   UNL     1      23.348  39.256  48.296  0.00  0.00    +0.000 Br
ATOM     11  C   UNL     1      24.549  40.724  48.191  0.00  0.00    +0.000 A 
ATOM     12  C   UNL     1      25.157  41.086  46.979  0.00  0.00    +0.000 A 
ATOM     13  C   UNL     1      24.810  41.442  49.359  0.00  0.00    +0.000 A 
ATOM     14  C   UNL     1      25.983  42.220  46.942  0.00  0.00    +0.000 A 
ATOM     15  C   UNL     1      25.677  42.526  49.311  0.00  0.00    +0.000 A 
ATOM     16  C   UNL     1      26.264  42.923  48.116  0.00  0.00    +0.000 A 
ATOM     17  F   UNL     1      25.943  43.206  50.432  0.00  0.00    +0.000 F 
ENDBRANCH   9  12
ENDBRANCH   3   9
ENDBRANCH   1   8
BRANCH   2  18
ATOM     18  N   UNL     1      18.160  41.426  44.762  0.00  0.00    +0.000 N 
ATOM     19  C   UNL     1      17.297  42.308  45.384  0.00  0.00    +0.000 C 
ATOM     20  O   UNL     1      16.877  43.348  44.888  0.00  0.00    +0.000 OA
ATOM     21  H   UNL     1      18.370  40.593  45.243  0.00  0.00    +0.000 HD
BRANCH  19  22
ATOM     22  C   UNL     1      16.769  41.831  46.723  0.00  0.00    +0.000 C 
BRANCH  22  23
ATOM     23  C   UNL     1      17.750  40.793  47.270  0.00  0.00    +0.000 C 
BRANCH  23  24
ATOM     24  C   UNL     1      17.354  39.346  47.004  0.00  0.00    +0.000 C 
ATOM     25  C   UNL     1      18.124  38.765  45.817  0.00  0.00    +0.000 C 
ATOM     26  C   UNL     1      15.904  39.158  46.569  0.00  0.00    +0.000 C 
ATOM     27  C   UNL     1      17.293  37.574  45.355  0.00  0.00    +0.000 C 
ATOM     28  C   UNL     1      15.902  37.766  45.951  0.00  0.00    +0.000 C 
ENDBRANCH  23  24
ENDBRANCH  22  23
ENDBRANCH  19  22
ENDBRANCH   2  18
BRANCH   2  29
ATOM     29  C   UNL     1      17.861  41.952  42.359  0.00  0.00    +0.000 C 
ATOM     30  O   UNL     1      16.912  41.292  41.977  0.00  0.00    +0.000 OA
ATOM     31  OXT UNL     1      18.234  43.113  41.767  0.00  0.00    +0.000 OA
ENDBRANCH   2  29
TORSDOF 8
ENDMDL
MODEL 6
REMARK VINA RESULT:      -6.4      2.093      4.347
REMARK  Name = 323201
REMARK  8 active torsions:
REMARK  status: ('A' for Active; 'I' for Inactive)
REMARK    1  A    between atoms: C_3  and  O_5
REMARK    2  A    between atoms: O_5  and  C_8
REMARK    3  A    between atoms: C_15  and  C_16
REMARK    4  A    between atoms: CA_17  and  N_18
REMARK    5  A    between atoms: CA_17  and  C_19
REMARK    6  A    between atoms: C_20  and  C_24
REMARK    7  A    between atoms: C_24  and  C_25
REMARK    8  A    between atoms: C_25  and  C_26
REMARK                            x       y       z     vdW  Elec       q    Type
REMARK                         _______ _______ _______ _____ _____    ______ ____
ROOT
ATOM      1  C   UNL     1      24.489  40.656  45.891  0.00  0.00    +0.000 C 
ATOM      2  CA  UNL     1      24.485  41.452  46.979  0.00  0.00    +0.000 C 
ENDROOT
BRANCH   1   8
ATOM      3  C   UNL     1      21.093  39.611  43.568  0.00  0.00    +0.000 A 
ATOM      4  C   UNL     1      22.000  38.616  43.939  0.00  0.00    +0.000 A 
ATOM      5  C   UNL     1      21.407  40.953  43.780  0.00  0.00    +0.000 A 
ATOM      6  C   UNL     1      23.146  38.954  44.659  0.00  0.00    +0.000 A 
ATOM      7  C   UNL     1      22.557  41.293  44.494  0.00  0.00    +0.000 A 
ATOM      8  C   UNL     1      23.415  40.293  44.971  0.00  0.00    +0.000 A 
BRANCH   3   9
ATOM      9  O   UNL     1      19.893  39.363  42.948  0.00  0.00    +0.000 OA
BRANCH   9  12
ATOM     10 BR   UNL     1      17.815  41.592  43.005  0.00  0.00    +0.000 Br
ATOM     11  C   UNL     1      17.745  39.877  43.820  0.00  0.00    +0.000 A 
ATOM     12  C   UNL     1      18.802  38.963  43.695  0.00  0.00    +0.000 A 
ATOM     13  C   UNL     1      16.605  39.547  44.556  0.00  0.00    +0.000 A 
ATOM     14  C   UNL     1      18.729  37.737  44.373  0.00  0.00    +0.000 A 
ATOM     15  C   UNL     1      16.529  38.305  45.170  0.00  0.00    +0.000 A 
ATOM     16  C   UNL     1      17.578  37.398  45.088  0.00  0.00    +0.000 A 
ATOM     17  F   UNL     1      15.431  37.979  45.863  0.00  0.00    +0.000 F 
ENDBRANCH   9  12
ENDBRANCH   3   9
ENDBRANCH   1   8
BRANCH   2  18
ATOM     18  N   UNL     1      23.403  42.072  47.591  0.00  0.00    +0.000 N 
ATOM     19  C   UNL     1      22.196  41.478  47.903  0.00  0.00    +0.000 C 
ATOM     20  O   UNL     1      21.937  40.289  47.748  0.00  0.00    +0.000 OA
ATOM     21  H   UNL     1      23.506  43.023  47.825  0.00  0.00    +0.000 HD
BRANCH  19  22
ATOM     22  C   UNL     1      21.208  42.391  48.602  0.00  0.00    +0.000 C 
BRANCH  22  23
ATOM     23  C   UNL     1      20.370  43.085  47.527  0.00  0.00    +0.000 C 
BRANCH  23  24
ATOM     24  C   UNL     1      18.869  42.851  47.646  0.00  0.00    +0.000 C 
ATOM     25  C   UNL     1      18.490  41.430  47.226  0.00  0.00    +0.000 C 
ATOM     26  C   UNL     1      18.021  43.701  46.706  0.00  0.00    +0.000 C 
ATOM     27  C   UNL     1      17.003  41.501  46.898  0.00  0.00    +0.000 C 
ATOM     28  C   UNL     1      16.680  42.978  46.694  0.00  0.00    +0.000 C 
ENDBRANCH  23  24
ENDBRANCH  22  23
ENDBRANCH  19  22
ENDBRANCH   2  18
BRANCH   2  29
ATOM     29  C   UNL     1      25.852  41.699  47.564  0.00  0.00    +0.000 C 
ATOM     30  O   UNL     1      26.466  40.929  48.279  0.00  0.00    +0.000 OA
ATOM     31  OXT UNL     1      26.342  42.908  47.197  0.00  0.00    +0.000 OA
ENDBRANCH   2  29
TORSDOF 8
ENDMDL
MODEL 7
REMARK VINA RESULT:      -6.1      1.448      2.124
REMARK  Name = 323201
REMARK  8 active torsions:
REMARK  status: ('A' for Active; 'I' for Inactive)
REMARK    1  A    between atoms: C_3  and  O_5
REMARK    2  A    between atoms: O_5  and  C_8
REMARK    3  A    between atoms: C_15  and  C_16
REMARK    4  A    between atoms: CA_17  and  N_18
REMARK    5  A    between atoms: CA_17  and  C_19
REMARK    6  A    between atoms: C_20  and  C_24
REMARK    7  A    between atoms: C_24  and  C_25
REMARK    8  A    between atoms: C_25  and  C_26
REMARK                            x       y       z     vdW  Elec       q    Type
REMARK                         _______ _______ _______ _____ _____    ______ ____
ROOT
ATOM      1  C   UNL     1      22.675  42.397  48.838  0.00  0.00    +0.000 C 
ATOM      2  CA  UNL     1      23.901  41.839  48.790  0.00  0.00    +0.000 C 
ENDROOT
BRANCH   1   8
ATOM      3  C   UNL     1      18.963  41.231  47.140  0.00  0.00    +0.000 A 
ATOM      4  C   UNL     1      20.110  40.487  46.853  0.00  0.00    +0.000 A 
ATOM      5  C   UNL     1      19.074  42.452  47.804  0.00  0.00    +0.000 A 
ATOM      6  C   UNL     1      21.345  40.889  47.364  0.00  0.00    +0.000 A 
ATOM      7  C   UNL     1      20.310  42.860  48.308  0.00  0.00    +0.000 A 
ATOM      8  C   UNL     1      21.446  42.062  48.124  0.00  0.00    +0.000 A 
BRANCH   3   9
ATOM      9  O   UNL     1      17.694  40.859  46.768  0.00  0.00    +0.000 OA
BRANCH   9  12
ATOM     10 BR   UNL     1      16.877  43.656  45.876  0.00  0.00    +0.000 Br
ATOM     11  C   UNL     1      16.948  42.055  44.856  0.00  0.00    +0.000 A 
ATOM     12  C   UNL     1      17.348  40.839  45.431  0.00  0.00    +0.000 A 
ATOM     13  C   UNL     1      16.585  42.118  43.510  0.00  0.00    +0.000 A 
ATOM     14  C   UNL     1      17.316  39.672  44.651  0.00  0.00    +0.000 A 
ATOM     15  C   UNL     1      16.617  40.962  42.742  0.00  0.00    +0.000 A 
ATOM     16  C   UNL     1      16.977  39.741  43.298  0.00  0.00    +0.000 A 
ATOM     17  F   UNL     1      16.286  41.022  41.447  0.00  0.00    +0.000 F 
ENDBRANCH   9  12
ENDBRANCH   3   9
ENDBRANCH   1   8
BRANCH   2  18
ATOM     18  N   UNL     1      24.361  40.836  47.946  0.00  0.00    +0.000 N 
ATOM     19  C   UNL     1      25.199  41.007  46.861  0.00  0.00    +0.000 C 
ATOM     20  O   UNL     1      25.718  42.069  46.535  0.00  0.00    +0.000 OA
ATOM     21  H   UNL     1      24.062  39.917  48.138  0.00  0.00    +0.000 HD
BRANCH  19  22
ATOM     22  C   UNL     1      25.564  39.724  46.140  0.00  0.00    +0.000 C 
BRANCH  22  23
ATOM     23  C   UNL     1      24.273  38.937  45.903  0.00  0.00    +0.000 C 
BRANCH  23  24
ATOM     24  C   UNL     1      23.523  39.321  44.634  0.00  0.00    +0.000 C 
ATOM     25  C   UNL     1      23.120  40.796  44.648  0.00  0.00    +0.000 C 
ATOM     26  C   UNL     1      22.179  38.622  44.460  0.00  0.00    +0.000 C 
ATOM     27  C   UNL     1      21.984  40.902  43.638  0.00  0.00    +0.000 C 
ATOM     28  C   UNL     1      21.469  39.482  43.422  0.00  0.00    +0.000 C 
ENDBRANCH  23  24
ENDBRANCH  22  23
ENDBRANCH  19  22
ENDBRANCH   2  18
BRANCH   2  29
ATOM     29  C   UNL     1      24.863  42.380  49.817  0.00  0.00    +0.000 C 
ATOM     30  O   UNL     1      26.045  42.608  49.629  0.00  0.00    +0.000 OA
ATOM     31  OXT UNL     1      24.255  42.595  51.008  0.00  0.00    +0.000 OA
ENDBRANCH   2  29
TORSDOF 8
ENDMDL
MODEL 8
REMARK VINA RESULT:      -5.8      3.635      7.240
REMARK  Name = 323201
REMARK  8 active torsions:
REMARK  status: ('A' for Active; 'I' for Inactive)
REMARK    1  A    between atoms: C_3  and  O_5
REMARK    2  A    between atoms: O_5  and  C_8
REMARK    3  A    between atoms: C_15  and  C_16
REMARK    4  A    between atoms: CA_17  and  N_18
REMARK    5  A    between atoms: CA_17  and  C_19
REMARK    6  A    between atoms: C_20  and  C_24
REMARK    7  A    between atoms: C_24  and  C_25
REMARK    8  A    between atoms: C_25  and  C_26
REMARK                            x       y       z     vdW  Elec       q    Type
REMARK                         _______ _______ _______ _____ _____    ______ ____
ROOT
ATOM      1  C   UNL     1      18.091  39.527  46.919  0.00  0.00    +0.000 C 
ATOM      2  CA  UNL     1      17.236  39.369  45.889  0.00  0.00    +0.000 C 
ENDROOT
BRANCH   1   8
ATOM      3  C   UNL     1      21.404  42.018  47.831  0.00  0.00    +0.000 A 
ATOM      4  C   UNL     1      20.128  42.580  47.751  0.00  0.00    +0.000 A 
ATOM      5  C   UNL     1      21.614  40.704  47.415  0.00  0.00    +0.000 A 
ATOM      6  C   UNL     1      19.038  41.782  47.402  0.00  0.00    +0.000 A 
ATOM      7  C   UNL     1      20.525  39.906  47.058  0.00  0.00    +0.000 A 
ATOM      8  C   UNL     1      19.227  40.430  47.086  0.00  0.00    +0.000 A 
BRANCH   3   9
ATOM      9  O   UNL     1      22.517  42.699  48.263  0.00  0.00    +0.000 OA
BRANCH   9  12
ATOM     10 BR   UNL     1      24.287  43.226  50.687  0.00  0.00    +0.000 Br
ATOM     11  C   UNL     1      24.718  42.324  49.071  0.00  0.00    +0.000 A 
ATOM     12  C   UNL     1      23.774  42.171  48.045  0.00  0.00    +0.000 A 
ATOM     13  C   UNL     1      26.010  41.815  48.929  0.00  0.00    +0.000 A 
ATOM     14  C   UNL     1      24.165  41.557  46.844  0.00  0.00    +0.000 A 
ATOM     15  C   UNL     1      26.357  41.160  47.756  0.00  0.00    +0.000 A 
ATOM     16  C   UNL     1      25.450  41.026  46.712  0.00  0.00    +0.000 A 
ATOM     17  F   UNL     1      27.590  40.656  47.622  0.00  0.00    +0.000 F 
ENDBRANCH   9  12
ENDBRANCH   3   9
ENDBRANCH   1   8
BRANCH   2  18
ATOM     18  N   UNL     1      17.274  39.968  44.636  0.00  0.00    +0.000 N 
ATOM     19  C   UNL     1      16.885  41.260  44.339  0.00  0.00    +0.000 C 
ATOM     20  O   UNL     1      16.517  42.089  45.165  0.00  0.00    +0.000 OA
ATOM     21  H   UNL     1      17.610  39.421  43.889  0.00  0.00    +0.000 HD
BRANCH  19  22
ATOM     22  C   UNL     1      17.071  41.655  42.887  0.00  0.00    +0.000 C 
BRANCH  22  23
ATOM     23  C   UNL     1      18.520  42.112  42.710  0.00  0.00    +0.000 C 
BRANCH  23  24
ATOM     24  C   UNL     1      19.534  41.336  43.541  0.00  0.00    +0.000 C 
ATOM     25  C   UNL     1      20.824  42.134  43.736  0.00  0.00    +0.000 C 
ATOM     26  C   UNL     1      20.044  40.058  42.883  0.00  0.00    +0.000 C 
ATOM     27  C   UNL     1      21.878  41.095  44.097  0.00  0.00    +0.000 C 
ATOM     28  C   UNL     1      21.313  39.745  43.665  0.00  0.00    +0.000 C 
ENDBRANCH  23  24
ENDBRANCH  22  23
ENDBRANCH  19  22
ENDBRANCH   2  18
BRANCH   2  29
ATOM     29  C   UNL     1      16.088  38.436  46.180  0.00  0.00    +0.000 C 
ATOM     30  O   UNL     1      15.939  37.327  45.701  0.00  0.00    +0.000 OA
ATOM     31  OXT UNL     1      15.213  38.979  47.060  0.00  0.00    +0.000 OA
ENDBRANCH   2  29
TORSDOF 8
ENDMDL
MODEL 9
REMARK VINA RESULT:      -5.5      3.493      7.771
REMARK  Name = 323201
REMARK  8 active torsions:
REMARK  status: ('A' for Active; 'I' for Inactive)
REMARK    1  A    between atoms: C_3  and  O_5
REMARK    2  A    between atoms: O_5  and  C_8
REMARK    3  A    between atoms: C_15  and  C_16
REMARK    4  A    between atoms: CA_17  and  N_18
REMARK    5  A    between atoms: CA_17  and  C_19
REMARK    6  A    between atoms: C_20  and  C_24
REMARK    7  A    between atoms: C_24  and  C_25
REMARK    8  A    between atoms: C_25  and  C_26
REMARK                            x       y       z     vdW  Elec       q    Type
REMARK                         _______ _______ _______ _____ _____    ______ ____
ROOT
ATOM      1  C   UNL     1      20.007  39.305  43.947  0.00  0.00    +0.000 C 
ATOM      2  CA  UNL     1      18.820  39.944  43.951  0.00  0.00    +0.000 C 
ENDROOT
BRANCH   1   8
ATOM      3  C   UNL     1      23.873  40.423  45.297  0.00  0.00    +0.000 A 
ATOM      4  C   UNL     1      22.802  41.299  45.488  0.00  0.00    +0.000 A 
ATOM      5  C   UNL     1      23.714  39.294  44.493  0.00  0.00    +0.000 A 
ATOM      6  C   UNL     1      21.537  40.966  45.004  0.00  0.00    +0.000 A 
ATOM      7  C   UNL     1      22.450  38.964  44.002  0.00  0.00    +0.000 A 
ATOM      8  C   UNL     1      21.346  39.777  44.286  0.00  0.00    +0.000 A 
BRANCH   3   9
ATOM      9  O   UNL     1      25.127  40.617  45.823  0.00  0.00    +0.000 OA
BRANCH   9  12
ATOM     10 BR   UNL     1      23.504  39.266  48.019  0.00  0.00    +0.000 Br
ATOM     11  C   UNL     1      24.594  40.817  48.128  0.00  0.00    +0.000 A 
ATOM     12  C   UNL     1      25.277  41.312  47.006  0.00  0.00    +0.000 A 
ATOM     13  C   UNL     1      24.697  41.461  49.363  0.00  0.00    +0.000 A 
ATOM     14  C   UNL     1      26.014  42.501  47.125  0.00  0.00    +0.000 A 
ATOM     15  C   UNL     1      25.479  42.603  49.470  0.00  0.00    +0.000 A 
ATOM     16  C   UNL     1      26.137  43.130  48.366  0.00  0.00    +0.000 A 
ATOM     17  F   UNL     1      25.594  43.213  50.656  0.00  0.00    +0.000 F 
ENDBRANCH   9  12
ENDBRANCH   3   9
ENDBRANCH   1   8
BRANCH   2  18
ATOM     18  N   UNL     1      18.566  41.290  44.183  0.00  0.00    +0.000 N 
ATOM     19  C   UNL     1      18.185  42.221  43.235  0.00  0.00    +0.000 C 
ATOM     20  O   UNL     1      17.945  41.968  42.059  0.00  0.00    +0.000 OA
ATOM     21  H   UNL     1      18.666  41.611  45.108  0.00  0.00    +0.000 HD
BRANCH  19  22
ATOM     22  C   UNL     1      17.942  43.613  43.784  0.00  0.00    +0.000 C 
BRANCH  22  23
ATOM     23  C   UNL     1      16.771  43.531  44.765  0.00  0.00    +0.000 C 
BRANCH  23  24
ATOM     24  C   UNL     1      17.172  43.234  46.205  0.00  0.00    +0.000 C 
ATOM     25  C   UNL     1      18.646  43.558  46.451  0.00  0.00    +0.000 C 
ATOM     26  C   UNL     1      17.097  41.761  46.590  0.00  0.00    +0.000 C 
ATOM     27  C   UNL     1      19.021  42.758  47.694  0.00  0.00    +0.000 C 
ATOM     28  C   UNL     1      17.948  41.686  47.852  0.00  0.00    +0.000 C 
ENDBRANCH  23  24
ENDBRANCH  22  23
ENDBRANCH  19  22
ENDBRANCH   2  18
BRANCH   2  29
ATOM     29  C   UNL     1      17.637  39.047  43.691  0.00  0.00    +0.000 C 
ATOM     30  O   UNL     1      16.558  39.406  43.257  0.00  0.00    +0.000 OA
ATOM     31  OXT UNL     1      17.911  37.756  44.000  0.00  0.00    +0.000 OA
ENDBRANCH   2  29
TORSDOF 8
ENDMDL
