MODEL 1
REMARK VINA RESULT:      -8.9      0.000      0.000
REMARK  Name = 322755
REMARK  9 active torsions:
REMARK  status: ('A' for Active; 'I' for Inactive)
REMARK    1  A    between atoms: C_3  and  O_5
REMARK    2  A    between atoms: O_5  and  C_8
REMARK    3  A    between atoms: C_14  and  C_15
REMARK    4  A    between atoms: CA_16  and  N_17
REMARK    5  A    between atoms: CA_16  and  C_18
REMARK    6  A    between atoms: C_19  and  C_23
REMARK    7  A    between atoms: C_23  and  C_24
REMARK    8  A    between atoms: C_24  and  C_25
REMARK    9  A    between atoms: C_25  and  C_26
REMARK                            x       y       z     vdW  Elec       q    Type
REMARK                         _______ _______ _______ _____ _____    ______ ____
ROOT
ATOM      1  C   UNL     1      19.415  41.647  43.528  0.00  0.00    +0.000 C 
ATOM      2  CA  UNL     1      18.198  41.087  43.609  0.00  0.00    +0.000 C 
ENDROOT
BRANCH   1   8
ATOM      3  C   UNL     1      21.849  41.464  46.955  0.00  0.00    +0.000 A 
ATOM      4  C   UNL     1      21.085  42.612  46.746  0.00  0.00    +0.000 A 
ATOM      5  C   UNL     1      22.087  40.591  45.890  0.00  0.00    +0.000 A 
ATOM      6  C   UNL     1      20.350  42.747  45.558  0.00  0.00    +0.000 A 
ATOM      7  C   UNL     1      21.388  40.741  44.692  0.00  0.00    +0.000 A 
ATOM      8  C   UNL     1      20.446  41.770  44.563  0.00  0.00    +0.000 A 
BRANCH   3   9
ATOM      9  O   UNL     1      22.401  41.083  48.150  0.00  0.00    +0.000 OA
BRANCH   9  12
ATOM     10  I   UNL     1      25.489  40.567  46.350  0.00  0.00    +0.000 I 
ATOM     11  C   UNL     1      24.896  41.473  48.162  0.00  0.00    +0.000 A 
ATOM     12  C   UNL     1      23.580  41.613  48.631  0.00  0.00    +0.000 A 
ATOM     13  C   UNL     1      25.953  42.109  48.844  0.00  0.00    +0.000 A 
ATOM     14  C   UNL     1      23.349  42.522  49.682  0.00  0.00    +0.000 A 
ATOM     15  C   UNL     1      25.703  42.976  49.906  0.00  0.00    +0.000 A 
ATOM     16  C   UNL     1      24.393  43.212  50.301  0.00  0.00    +0.000 A 
ENDBRANCH   9  12
ENDBRANCH   3   9
ENDBRANCH   1   8
BRANCH   2  17
ATOM     17  N   UNL     1      17.783  40.335  44.695  0.00  0.00    +0.000 N 
ATOM     18  C   UNL     1      17.031  40.918  45.701  0.00  0.00    +0.000 C 
ATOM     19  O   UNL     1      16.638  42.080  45.674  0.00  0.00    +0.000 OA
ATOM     20  H   UNL     1      18.024  39.383  44.753  0.00  0.00    +0.000 HD
BRANCH  18  21
ATOM     21  C   UNL     1      16.730  39.970  46.847  0.00  0.00    +0.000 C 
BRANCH  21  22
ATOM     22  C   UNL     1      15.937  38.740  46.387  0.00  0.00    +0.000 C 
BRANCH  22  23
ATOM     23  C   UNL     1      16.700  37.416  46.499  0.00  0.00    +0.000 C 
BRANCH  23  24
ATOM     24  C   UNL     1      17.149  36.926  45.149  0.00  0.00    +0.000 C 
ATOM     25  O   UNL     1      18.018  37.490  44.500  0.00  0.00    +0.000 OA
ATOM     26  O   UNL     1      16.577  35.767  44.772  0.00  0.00    +0.000 OA
ENDBRANCH  23  24
ENDBRANCH  22  23
ENDBRANCH  21  22
ENDBRANCH  18  21
ENDBRANCH   2  17
BRANCH   2  27
ATOM     27  C   UNL     1      17.288  41.309  42.421  0.00  0.00    +0.000 C 
ATOM     28  O   UNL     1      17.534  42.085  41.512  0.00  0.00    +0.000 OA
ATOM     29  OXT UNL     1      16.199  40.514  42.425  0.00  0.00    +0.000 OA
ENDBRANCH   2  27
TORSDOF 9
ENDMDL
MODEL 2
REMARK VINA RESULT:      -8.1      0.906      2.015
REMARK  Name = 322755
REMARK  9 active torsions:
REMARK  status: ('A' for Active; 'I' for Inactive)
REMARK    1  A    between atoms: C_3  and  O_5
REMARK    2  A    between atoms: O_5  and  C_8
REMARK    3  A    between atoms: C_14  and  C_15
REMARK    4  A    between atoms: CA_16  and  N_17
REMARK    5  A    between atoms: CA_16  and  C_18
REMARK    6  A    between atoms: C_19  and  C_23
REMARK    7  A    between atoms: C_23  and  C_24
REMARK    8  A    between atoms: C_24  and  C_25
REMARK    9  A    between atoms: C_25  and  C_26
REMARK                            x       y       z     vdW  Elec       q    Type
REMARK                         _______ _______ _______ _____ _____    ______ ____
ROOT
ATOM      1  C   UNL     1      19.342  41.653  43.436  0.00  0.00    +0.000 C 
ATOM      2  CA  UNL     1      18.170  40.998  43.478  0.00  0.00    +0.000 C 
ENDROOT
BRANCH   1   8
ATOM      3  C   UNL     1      21.796  41.403  46.845  0.00  0.00    +0.000 A 
ATOM      4  C   UNL     1      21.033  42.556  46.661  0.00  0.00    +0.000 A 
ATOM      5  C   UNL     1      22.025  40.549  45.763  0.00  0.00    +0.000 A 
ATOM      6  C   UNL     1      20.291  42.713  45.480  0.00  0.00    +0.000 A 
ATOM      7  C   UNL     1      21.319  40.722  44.573  0.00  0.00    +0.000 A 
ATOM      8  C   UNL     1      20.379  41.755  44.467  0.00  0.00    +0.000 A 
BRANCH   3   9
ATOM      9  O   UNL     1      22.353  41.000  48.030  0.00  0.00    +0.000 OA
BRANCH   9  12
ATOM     10  I   UNL     1      25.500  40.522  46.322  0.00  0.00    +0.000 I 
ATOM     11  C   UNL     1      24.840  41.433  48.107  0.00  0.00    +0.000 A 
ATOM     12  C   UNL     1      23.509  41.555  48.538  0.00  0.00    +0.000 A 
ATOM     13  C   UNL     1      25.866  42.094  48.812  0.00  0.00    +0.000 A 
ATOM     14  C   UNL     1      23.233  42.470  49.573  0.00  0.00    +0.000 A 
ATOM     15  C   UNL     1      25.571  42.967  49.858  0.00  0.00    +0.000 A 
ATOM     16  C   UNL     1      24.247  43.184  50.215  0.00  0.00    +0.000 A 
ENDBRANCH   9  12
ENDBRANCH   3   9
ENDBRANCH   1   8
BRANCH   2  17
ATOM     17  N   UNL     1      17.831  40.119  44.492  0.00  0.00    +0.000 N 
ATOM     18  C   UNL     1      18.133  38.773  44.377  0.00  0.00    +0.000 C 
ATOM     19  O   UNL     1      18.756  38.289  43.437  0.00  0.00    +0.000 OA
ATOM     20  H   UNL     1      17.373  40.452  45.296  0.00  0.00    +0.000 HD
BRANCH  18  21
ATOM     21  C   UNL     1      17.622  37.945  45.542  0.00  0.00    +0.000 C 
BRANCH  21  22
ATOM     22  C   UNL     1      16.236  38.405  46.015  0.00  0.00    +0.000 C 
BRANCH  22  23
ATOM     23  C   UNL     1      16.245  39.201  47.323  0.00  0.00    +0.000 C 
BRANCH  23  24
ATOM     24  C   UNL     1      17.080  40.446  47.202  0.00  0.00    +0.000 C 
ATOM     25  O   UNL     1      18.251  40.490  47.551  0.00  0.00    +0.000 OA
ATOM     26  O   UNL     1      16.451  41.468  46.590  0.00  0.00    +0.000 OA
ENDBRANCH  23  24
ENDBRANCH  22  23
ENDBRANCH  21  22
ENDBRANCH  18  21
ENDBRANCH   2  17
BRANCH   2  27
ATOM     27  C   UNL     1      17.226  41.262  42.325  0.00  0.00    +0.000 C 
ATOM     28  O   UNL     1      17.482  42.005  41.392  0.00  0.00    +0.000 OA
ATOM     29  OXT UNL     1      16.087  40.541  42.391  0.00  0.00    +0.000 OA
ENDBRANCH   2  27
TORSDOF 9
ENDMDL
MODEL 3
REMARK VINA RESULT:      -7.6      3.261      7.302
REMARK  Name = 322755
REMARK  9 active torsions:
REMARK  status: ('A' for Active; 'I' for Inactive)
REMARK    1  A    between atoms: C_3  and  O_5
REMARK    2  A    between atoms: O_5  and  C_8
REMARK    3  A    between atoms: C_14  and  C_15
REMARK    4  A    between atoms: CA_16  and  N_17
REMARK    5  A    between atoms: CA_16  and  C_18
REMARK    6  A    between atoms: C_19  and  C_23
REMARK    7  A    between atoms: C_23  and  C_24
REMARK    8  A    between atoms: C_24  and  C_25
REMARK    9  A    between atoms: C_25  and  C_26
REMARK                            x       y       z     vdW  Elec       q    Type
REMARK                         _______ _______ _______ _____ _____    ______ ____
ROOT
ATOM      1  C   UNL     1      22.760  41.601  47.863  0.00  0.00    +0.000 C 
ATOM      2  CA  UNL     1      23.568  41.403  46.809  0.00  0.00    +0.000 C 
ENDROOT
BRANCH   1   8
ATOM      3  C   UNL     1      18.606  41.741  47.210  0.00  0.00    +0.000 A 
ATOM      4  C   UNL     1      19.194  42.762  47.956  0.00  0.00    +0.000 A 
ATOM      5  C   UNL     1      19.296  40.541  47.020  0.00  0.00    +0.000 A 
ATOM      6  C   UNL     1      20.557  42.683  48.283  0.00  0.00    +0.000 A 
ATOM      7  C   UNL     1      20.641  40.443  47.377  0.00  0.00    +0.000 A 
ATOM      8  C   UNL     1      21.296  41.553  47.924  0.00  0.00    +0.000 A 
BRANCH   3   9
ATOM      9  O   UNL     1      17.377  41.804  46.607  0.00  0.00    +0.000 OA
BRANCH   9  12
ATOM     10  I   UNL     1      16.489  38.350  46.038  0.00  0.00    +0.000 I 
ATOM     11  C   UNL     1      16.886  40.052  44.855  0.00  0.00    +0.000 A 
ATOM     12  C   UNL     1      17.151  41.349  45.325  0.00  0.00    +0.000 A 
ATOM     13  C   UNL     1      16.705  39.832  43.475  0.00  0.00    +0.000 A 
ATOM     14  C   UNL     1      17.066  42.412  44.405  0.00  0.00    +0.000 A 
ATOM     15  C   UNL     1      16.661  40.897  42.578  0.00  0.00    +0.000 A 
ATOM     16  C   UNL     1      16.805  42.195  43.050  0.00  0.00    +0.000 A 
ENDBRANCH   9  12
ENDBRANCH   3   9
ENDBRANCH   1   8
BRANCH   2  17
ATOM     17  N   UNL     1      23.121  40.916  45.594  0.00  0.00    +0.000 N 
ATOM     18  C   UNL     1      23.150  39.555  45.335  0.00  0.00    +0.000 C 
ATOM     19  O   UNL     1      23.499  38.711  46.153  0.00  0.00    +0.000 OA
ATOM     20  H   UNL     1      22.781  41.537  44.910  0.00  0.00    +0.000 HD
BRANCH  18  21
ATOM     21  C   UNL     1      22.695  39.206  43.930  0.00  0.00    +0.000 C 
BRANCH  21  22
ATOM     22  C   UNL     1      22.049  40.400  43.216  0.00  0.00    +0.000 C 
BRANCH  22  23
ATOM     23  C   UNL     1      20.624  40.719  43.680  0.00  0.00    +0.000 C 
BRANCH  23  24
ATOM     24  C   UNL     1      20.399  42.203  43.779  0.00  0.00    +0.000 C 
ATOM     25  O   UNL     1      20.703  42.850  44.771  0.00  0.00    +0.000 OA
ATOM     26  O   UNL     1      19.929  42.761  42.647  0.00  0.00    +0.000 OA
ENDBRANCH  23  24
ENDBRANCH  22  23
ENDBRANCH  21  22
ENDBRANCH  18  21
ENDBRANCH   2  17
BRANCH   2  27
ATOM     27  C   UNL     1      25.030  41.731  47.028  0.00  0.00    +0.000 C 
ATOM     28  O   UNL     1      25.432  42.516  47.871  0.00  0.00    +0.000 OA
ATOM     29  OXT UNL     1      25.861  41.018  46.240  0.00  0.00    +0.000 OA
ENDBRANCH   2  27
TORSDOF 9
ENDMDL
MODEL 4
REMARK VINA RESULT:      -7.6      2.885      7.912
REMARK  Name = 322755
REMARK  9 active torsions:
REMARK  status: ('A' for Active; 'I' for Inactive)
REMARK    1  A    between atoms: C_3  and  O_5
REMARK    2  A    between atoms: O_5  and  C_8
REMARK    3  A    between atoms: C_14  and  C_15
REMARK    4  A    between atoms: CA_16  and  N_17
REMARK    5  A    between atoms: CA_16  and  C_18
REMARK    6  A    between atoms: C_19  and  C_23
REMARK    7  A    between atoms: C_23  and  C_24
REMARK    8  A    between atoms: C_24  and  C_25
REMARK    9  A    between atoms: C_25  and  C_26
REMARK                            x       y       z     vdW  Elec       q    Type
REMARK                         _______ _______ _______ _____ _____    ______ ____
ROOT
ATOM      1  C   UNL     1      23.316  40.188  44.364  0.00  0.00    +0.000 C 
ATOM      2  CA  UNL     1      23.872  40.546  45.532  0.00  0.00    +0.000 C 
ENDROOT
BRANCH   1   8
ATOM      3  C   UNL     1      19.195  40.731  43.710  0.00  0.00    +0.000 A 
ATOM      4  C   UNL     1      19.814  39.615  43.146  0.00  0.00    +0.000 A 
ATOM      5  C   UNL     1      19.975  41.808  44.140  0.00  0.00    +0.000 A 
ATOM      6  C   UNL     1      21.206  39.468  43.255  0.00  0.00    +0.000 A 
ATOM      7  C   UNL     1      21.362  41.681  44.215  0.00  0.00    +0.000 A 
ATOM      8  C   UNL     1      21.969  40.471  43.859  0.00  0.00    +0.000 A 
BRANCH   3   9
ATOM      9  O   UNL     1      17.847  40.878  43.905  0.00  0.00    +0.000 OA
BRANCH   9  12
ATOM     10  I   UNL     1      16.991  43.106  46.616  0.00  0.00    +0.000 I 
ATOM     11  C   UNL     1      16.848  41.038  46.220  0.00  0.00    +0.000 A 
ATOM     12  C   UNL     1      17.198  40.394  45.022  0.00  0.00    +0.000 A 
ATOM     13  C   UNL     1      16.193  40.315  47.237  0.00  0.00    +0.000 A 
ATOM     14  C   UNL     1      16.733  39.079  44.822  0.00  0.00    +0.000 A 
ATOM     15  C   UNL     1      15.775  39.002  47.029  0.00  0.00    +0.000 A 
ATOM     16  C   UNL     1      16.013  38.395  45.804  0.00  0.00    +0.000 A 
ENDBRANCH   9  12
ENDBRANCH   3   9
ENDBRANCH   1   8
BRANCH   2  17
ATOM     17  N   UNL     1      23.284  41.443  46.407  0.00  0.00    +0.000 N 
ATOM     18  C   UNL     1      22.504  40.985  47.456  0.00  0.00    +0.000 C 
ATOM     19  O   UNL     1      22.337  39.798  47.715  0.00  0.00    +0.000 OA
ATOM     20  H   UNL     1      23.419  42.410  46.283  0.00  0.00    +0.000 HD
BRANCH  18  21
ATOM     21  C   UNL     1      21.877  42.104  48.266  0.00  0.00    +0.000 C 
BRANCH  21  22
ATOM     22  C   UNL     1      22.869  42.729  49.255  0.00  0.00    +0.000 C 
BRANCH  22  23
ATOM     23  C   UNL     1      24.077  41.846  49.584  0.00  0.00    +0.000 C 
BRANCH  23  24
ATOM     24  C   UNL     1      25.366  42.612  49.460  0.00  0.00    +0.000 C 
ATOM     25  O   UNL     1      25.927  42.786  48.388  0.00  0.00    +0.000 OA
ATOM     26  O   UNL     1      25.786  43.163  50.615  0.00  0.00    +0.000 OA
ENDBRANCH  23  24
ENDBRANCH  22  23
ENDBRANCH  21  22
ENDBRANCH  18  21
ENDBRANCH   2  17
BRANCH   2  27
ATOM     27  C   UNL     1      25.214  39.918  45.844  0.00  0.00    +0.000 C 
ATOM     28  O   UNL     1      26.216  40.557  46.118  0.00  0.00    +0.000 OA
ATOM     29  OXT UNL     1      25.183  38.569  45.855  0.00  0.00    +0.000 OA
ENDBRANCH   2  27
TORSDOF 9
ENDMDL
MODEL 5
REMARK VINA RESULT:      -7.4      1.260      1.783
REMARK  Name = 322755
REMARK  9 active torsions:
REMARK  status: ('A' for Active; 'I' for Inactive)
REMARK    1  A    between atoms: C_3  and  O_5
REMARK    2  A    between atoms: O_5  and  C_8
REMARK    3  A    between atoms: C_14  and  C_15
REMARK    4  A    between atoms: CA_16  and  N_17
REMARK    5  A    between atoms: CA_16  and  C_18
REMARK    6  A    between atoms: C_19  and  C_23
REMARK    7  A    between atoms: C_23  and  C_24
REMARK    8  A    between atoms: C_24  and  C_25
REMARK    9  A    between atoms: C_25  and  C_26
REMARK                            x       y       z     vdW  Elec       q    Type
REMARK                         _______ _______ _______ _____ _____    ______ ____
ROOT
ATOM      1  C   UNL     1      19.302  41.466  43.383  0.00  0.00    +0.000 C 
ATOM      2  CA  UNL     1      18.157  40.812  43.632  0.00  0.00    +0.000 C 
ENDROOT
BRANCH   1   8
ATOM      3  C   UNL     1      22.055  41.777  46.550  0.00  0.00    +0.000 A 
ATOM      4  C   UNL     1      21.304  42.903  46.212  0.00  0.00    +0.000 A 
ATOM      5  C   UNL     1      22.164  40.723  45.639  0.00  0.00    +0.000 A 
ATOM      6  C   UNL     1      20.460  42.860  45.091  0.00  0.00    +0.000 A 
ATOM      7  C   UNL     1      21.355  40.692  44.503  0.00  0.00    +0.000 A 
ATOM      8  C   UNL     1      20.432  41.722  44.281  0.00  0.00    +0.000 A 
BRANCH   3   9
ATOM      9  O   UNL     1      22.711  41.586  47.738  0.00  0.00    +0.000 OA
BRANCH   9  12
ATOM     10  I   UNL     1      24.266  43.024  50.664  0.00  0.00    +0.000 I 
ATOM     11  C   UNL     1      24.904  42.201  48.829  0.00  0.00    +0.000 A 
ATOM     12  C   UNL     1      24.085  41.622  47.845  0.00  0.00    +0.000 A 
ATOM     13  C   UNL     1      26.306  42.119  48.707  0.00  0.00    +0.000 A 
ATOM     14  C   UNL     1      24.703  40.838  46.851  0.00  0.00    +0.000 A 
ATOM     15  C   UNL     1      26.896  41.367  47.693  0.00  0.00    +0.000 A 
ATOM     16  C   UNL     1      26.091  40.694  46.784  0.00  0.00    +0.000 A 
ENDBRANCH   9  12
ENDBRANCH   3   9
ENDBRANCH   1   8
BRANCH   2  17
ATOM     17  N   UNL     1      17.939  40.080  44.787  0.00  0.00    +0.000 N 
ATOM     18  C   UNL     1      17.240  40.638  45.844  0.00  0.00    +0.000 C 
ATOM     19  O   UNL     1      16.727  41.752  45.812  0.00  0.00    +0.000 OA
ATOM     20  H   UNL     1      18.283  39.161  44.857  0.00  0.00    +0.000 HD
BRANCH  18  21
ATOM     21  C   UNL     1      17.162  39.727  47.055  0.00  0.00    +0.000 C 
BRANCH  21  22
ATOM     22  C   UNL     1      16.081  38.650  46.900  0.00  0.00    +0.000 C 
BRANCH  22  23
ATOM     23  C   UNL     1      16.014  38.015  45.507  0.00  0.00    +0.000 C 
BRANCH  23  24
ATOM     24  C   UNL     1      17.111  37.005  45.312  0.00  0.00    +0.000 C 
ATOM     25  O   UNL     1      18.002  37.152  44.487  0.00  0.00    +0.000 OA
ATOM     26  O   UNL     1      17.074  35.982  46.188  0.00  0.00    +0.000 OA
ENDBRANCH  23  24
ENDBRANCH  22  23
ENDBRANCH  21  22
ENDBRANCH  18  21
ENDBRANCH   2  17
BRANCH   2  27
ATOM     27  C   UNL     1      17.098  40.902  42.554  0.00  0.00    +0.000 C 
ATOM     28  O   UNL     1      16.071  40.244  42.554  0.00  0.00    +0.000 OA
ATOM     29  OXT UNL     1      17.366  41.834  41.617  0.00  0.00    +0.000 OA
ENDBRANCH   2  27
TORSDOF 9
ENDMDL
MODEL 6
REMARK VINA RESULT:      -7.2      2.998      7.558
REMARK  Name = 322755
REMARK  9 active torsions:
REMARK  status: ('A' for Active; 'I' for Inactive)
REMARK    1  A    between atoms: C_3  and  O_5
REMARK    2  A    between atoms: O_5  and  C_8
REMARK    3  A    between atoms: C_14  and  C_15
REMARK    4  A    between atoms: CA_16  and  N_17
REMARK    5  A    between atoms: CA_16  and  C_18
REMARK    6  A    between atoms: C_19  and  C_23
REMARK    7  A    between atoms: C_23  and  C_24
REMARK    8  A    between atoms: C_24  and  C_25
REMARK    9  A    between atoms: C_25  and  C_26
REMARK                            x       y       z     vdW  Elec       q    Type
REMARK                         _______ _______ _______ _____ _____    ______ ____
ROOT
ATOM      1  C   UNL     1      22.852  39.358  44.260  0.00  0.00    +0.000 C 
ATOM      2  CA  UNL     1      23.517  39.836  45.324  0.00  0.00    +0.000 C 
ENDROOT
BRANCH   1   8
ATOM      3  C   UNL     1      18.948  40.746  43.530  0.00  0.00    +0.000 A 
ATOM      4  C   UNL     1      19.178  39.370  43.505  0.00  0.00    +0.000 A 
ATOM      5  C   UNL     1      20.027  41.627  43.421  0.00  0.00    +0.000 A 
ATOM      6  C   UNL     1      20.488  38.886  43.636  0.00  0.00    +0.000 A 
ATOM      7  C   UNL     1      21.334  41.147  43.511  0.00  0.00    +0.000 A 
ATOM      8  C   UNL     1      21.559  39.780  43.714  0.00  0.00    +0.000 A 
BRANCH   3   9
ATOM      9  O   UNL     1      17.723  41.345  43.672  0.00  0.00    +0.000 OA
BRANCH   9  12
ATOM     10  I   UNL     1      16.685  39.176  46.368  0.00  0.00    +0.000 I 
ATOM     11  C   UNL     1      16.761  41.254  46.006  0.00  0.00    +0.000 A 
ATOM     12  C   UNL     1      17.290  41.882  44.866  0.00  0.00    +0.000 A 
ATOM     13  C   UNL     1      16.367  42.032  47.113  0.00  0.00    +0.000 A 
ATOM     14  C   UNL     1      17.555  43.263  44.939  0.00  0.00    +0.000 A 
ATOM     15  C   UNL     1      16.606  43.404  47.148  0.00  0.00    +0.000 A 
ATOM     16  C   UNL     1      17.236  44.015  46.072  0.00  0.00    +0.000 A 
ENDBRANCH   9  12
ENDBRANCH   3   9
ENDBRANCH   1   8
BRANCH   2  17
ATOM     17  N   UNL     1      23.144  40.989  45.993  0.00  0.00    +0.000 N 
ATOM     18  C   UNL     1      22.330  40.913  47.112  0.00  0.00    +0.000 C 
ATOM     19  O   UNL     1      21.949  39.858  47.610  0.00  0.00    +0.000 OA
ATOM     20  H   UNL     1      23.456  41.865  45.674  0.00  0.00    +0.000 HD
BRANCH  18  21
ATOM     21  C   UNL     1      21.958  42.273  47.673  0.00  0.00    +0.000 C 
BRANCH  21  22
ATOM     22  C   UNL     1      22.727  42.598  48.960  0.00  0.00    +0.000 C 
BRANCH  22  23
ATOM     23  C   UNL     1      23.935  41.692  49.223  0.00  0.00    +0.000 C 
BRANCH  23  24
ATOM     24  C   UNL     1      25.223  42.375  48.853  0.00  0.00    +0.000 C 
ATOM     25  O   UNL     1      25.665  42.372  47.713  0.00  0.00    +0.000 OA
ATOM     26  O   UNL     1      25.786  43.063  49.864  0.00  0.00    +0.000 OA
ENDBRANCH  23  24
ENDBRANCH  22  23
ENDBRANCH  21  22
ENDBRANCH  18  21
ENDBRANCH   2  17
BRANCH   2  27
ATOM     27  C   UNL     1      24.733  39.044  45.753  0.00  0.00    +0.000 C 
ATOM     28  O   UNL     1      24.743  37.830  45.880  0.00  0.00    +0.000 OA
ATOM     29  OXT UNL     1      25.835  39.804  45.922  0.00  0.00    +0.000 OA
ENDBRANCH   2  27
TORSDOF 9
ENDMDL
MODEL 7
REMARK VINA RESULT:      -7.1      2.908      7.440
REMARK  Name = 322755
REMARK  9 active torsions:
REMARK  status: ('A' for Active; 'I' for Inactive)
REMARK    1  A    between atoms: C_3  and  O_5
REMARK    2  A    between atoms: O_5  and  C_8
REMARK    3  A    between atoms: C_14  and  C_15
REMARK    4  A    between atoms: CA_16  and  N_17
REMARK    5  A    between atoms: CA_16  and  C_18
REMARK    6  A    between atoms: C_19  and  C_23
REMARK    7  A    between atoms: C_23  and  C_24
REMARK    8  A    between atoms: C_24  and  C_25
REMARK    9  A    between atoms: C_25  and  C_26
REMARK                            x       y       z     vdW  Elec       q    Type
REMARK                         _______ _______ _______ _____ _____    ______ ____
ROOT
ATOM      1  C   UNL     1      22.224  42.482  48.622  0.00  0.00    +0.000 C 
ATOM      2  CA  UNL     1      23.364  41.867  48.268  0.00  0.00    +0.000 C 
ENDROOT
BRANCH   1   8
ATOM      3  C   UNL     1      18.464  42.183  46.758  0.00  0.00    +0.000 A 
ATOM      4  C   UNL     1      19.604  41.928  45.995  0.00  0.00    +0.000 A 
ATOM      5  C   UNL     1      18.585  42.874  47.967  0.00  0.00    +0.000 A 
ATOM      6  C   UNL     1      20.873  42.127  46.560  0.00  0.00    +0.000 A 
ATOM      7  C   UNL     1      19.845  43.109  48.516  0.00  0.00    +0.000 A 
ATOM      8  C   UNL     1      20.988  42.648  47.852  0.00  0.00    +0.000 A 
BRANCH   3   9
ATOM      9  O   UNL     1      17.189  41.796  46.436  0.00  0.00    +0.000 OA
BRANCH   9  12
ATOM     10  I   UNL     1      17.241  40.959  42.923  0.00  0.00    +0.000 I 
ATOM     11  C   UNL     1      16.747  39.987  44.730  0.00  0.00    +0.000 A 
ATOM     12  C   UNL     1      16.880  40.517  46.024  0.00  0.00    +0.000 A 
ATOM     13  C   UNL     1      16.401  38.631  44.562  0.00  0.00    +0.000 A 
ATOM     14  C   UNL     1      16.817  39.623  47.111  0.00  0.00    +0.000 A 
ATOM     15  C   UNL     1      16.308  37.773  45.656  0.00  0.00    +0.000 A 
ATOM     16  C   UNL     1      16.554  38.263  46.931  0.00  0.00    +0.000 A 
ENDBRANCH   9  12
ENDBRANCH   3   9
ENDBRANCH   1   8
BRANCH   2  17
ATOM     17  N   UNL     1      23.484  41.095  47.125  0.00  0.00    +0.000 N 
ATOM     18  C   UNL     1      23.601  39.719  47.223  0.00  0.00    +0.000 C 
ATOM     19  O   UNL     1      23.545  39.102  48.282  0.00  0.00    +0.000 OA
ATOM     20  H   UNL     1      23.487  41.526  46.240  0.00  0.00    +0.000 HD
BRANCH  18  21
ATOM     21  C   UNL     1      23.800  39.040  45.881  0.00  0.00    +0.000 C 
BRANCH  21  22
ATOM     22  C   UNL     1      23.314  39.910  44.714  0.00  0.00    +0.000 C 
BRANCH  22  23
ATOM     23  C   UNL     1      22.465  39.165  43.679  0.00  0.00    +0.000 C 
BRANCH  23  24
ATOM     24  C   UNL     1      21.084  39.752  43.578  0.00  0.00    +0.000 C 
ATOM     25  O   UNL     1      20.086  39.157  43.960  0.00  0.00    +0.000 OA
ATOM     26  O   UNL     1      21.060  41.019  43.121  0.00  0.00    +0.000 OA
ENDBRANCH  23  24
ENDBRANCH  22  23
ENDBRANCH  21  22
ENDBRANCH  18  21
ENDBRANCH   2  17
BRANCH   2  27
ATOM     27  C   UNL     1      24.533  42.051  49.211  0.00  0.00    +0.000 C 
ATOM     28  O   UNL     1      25.697  41.867  48.896  0.00  0.00    +0.000 OA
ATOM     29  OXT UNL     1      24.171  42.505  50.429  0.00  0.00    +0.000 OA
ENDBRANCH   2  27
TORSDOF 9
ENDMDL
MODEL 8
REMARK VINA RESULT:      -7.1      1.467      2.163
REMARK  Name = 322755
REMARK  9 active torsions:
REMARK  status: ('A' for Active; 'I' for Inactive)
REMARK    1  A    between atoms: C_3  and  O_5
REMARK    2  A    between atoms: O_5  and  C_8
REMARK    3  A    between atoms: C_14  and  C_15
REMARK    4  A    between atoms: CA_16  and  N_17
REMARK    5  A    between atoms: CA_16  and  C_18
REMARK    6  A    between atoms: C_19  and  C_23
REMARK    7  A    between atoms: C_23  and  C_24
REMARK    8  A    between atoms: C_24  and  C_25
REMARK    9  A    between atoms: C_25  and  C_26
REMARK                            x       y       z     vdW  Elec       q    Type
REMARK                         _______ _______ _______ _____ _____    ______ ____
ROOT
ATOM      1  C   UNL     1      19.411  42.509  44.067  0.00  0.00    +0.000 C 
ATOM      2  CA  UNL     1      18.561  41.624  43.523  0.00  0.00    +0.000 C 
ENDROOT
BRANCH   1   8
ATOM      3  C   UNL     1      21.624  41.569  47.521  0.00  0.00    +0.000 A 
ATOM      4  C   UNL     1      20.233  41.482  47.581  0.00  0.00    +0.000 A 
ATOM      5  C   UNL     1      22.224  42.299  46.491  0.00  0.00    +0.000 A 
ATOM      6  C   UNL     1      19.466  41.895  46.480  0.00  0.00    +0.000 A 
ATOM      7  C   UNL     1      21.461  42.745  45.412  0.00  0.00    +0.000 A 
ATOM      8  C   UNL     1      20.092  42.458  45.365  0.00  0.00    +0.000 A 
BRANCH   3   9
ATOM      9  O   UNL     1      22.496  40.976  48.395  0.00  0.00    +0.000 OA
BRANCH   9  12
ATOM     10  I   UNL     1      25.438  40.489  46.356  0.00  0.00    +0.000 I 
ATOM     11  C   UNL     1      24.971  41.433  48.185  0.00  0.00    +0.000 A 
ATOM     12  C   UNL     1      23.695  41.553  48.759  0.00  0.00    +0.000 A 
ATOM     13  C   UNL     1      26.062  42.119  48.758  0.00  0.00    +0.000 A 
ATOM     14  C   UNL     1      23.526  42.487  49.800  0.00  0.00    +0.000 A 
ATOM     15  C   UNL     1      25.876  43.011  49.811  0.00  0.00    +0.000 A 
ATOM     16  C   UNL     1      24.597  43.224  50.309  0.00  0.00    +0.000 A 
ENDBRANCH   9  12
ENDBRANCH   3   9
ENDBRANCH   1   8
BRANCH   2  17
ATOM     17  N   UNL     1      18.330  40.370  44.060  0.00  0.00    +0.000 N 
ATOM     18  C   UNL     1      19.206  39.328  43.800  0.00  0.00    +0.000 C 
ATOM     19  O   UNL     1      20.242  39.451  43.156  0.00  0.00    +0.000 OA
ATOM     20  H   UNL     1      17.541  40.216  44.628  0.00  0.00    +0.000 HD
BRANCH  18  21
ATOM     21  C   UNL     1      18.760  38.009  44.403  0.00  0.00    +0.000 C 
BRANCH  21  22
ATOM     22  C   UNL     1      17.234  37.919  44.533  0.00  0.00    +0.000 C 
BRANCH  22  23
ATOM     23  C   UNL     1      16.736  37.594  45.945  0.00  0.00    +0.000 C 
BRANCH  23  24
ATOM     24  C   UNL     1      16.244  38.828  46.651  0.00  0.00    +0.000 C 
ATOM     25  O   UNL     1      15.947  38.833  47.837  0.00  0.00    +0.000 OA
ATOM     26  O   UNL     1      16.256  39.936  45.885  0.00  0.00    +0.000 OA
ENDBRANCH  23  24
ENDBRANCH  22  23
ENDBRANCH  21  22
ENDBRANCH  18  21
ENDBRANCH   2  17
BRANCH   2  27
ATOM     27  C   UNL     1      17.866  42.070  42.256  0.00  0.00    +0.000 C 
ATOM     28  O   UNL     1      16.922  41.482  41.755  0.00  0.00    +0.000 OA
ATOM     29  OXT UNL     1      18.350  43.228  41.759  0.00  0.00    +0.000 OA
ENDBRANCH   2  27
TORSDOF 9
ENDMDL
MODEL 9
REMARK VINA RESULT:      -7.0      3.335      7.952
REMARK  Name = 322755
REMARK  9 active torsions:
REMARK  status: ('A' for Active; 'I' for Inactive)
REMARK    1  A    between atoms: C_3  and  O_5
REMARK    2  A    between atoms: O_5  and  C_8
REMARK    3  A    between atoms: C_14  and  C_15
REMARK    4  A    between atoms: CA_16  and  N_17
REMARK    5  A    between atoms: CA_16  and  C_18
REMARK    6  A    between atoms: C_19  and  C_23
REMARK    7  A    between atoms: C_23  and  C_24
REMARK    8  A    between atoms: C_24  and  C_25
REMARK    9  A    between atoms: C_25  and  C_26
REMARK                            x       y       z     vdW  Elec       q    Type
REMARK                         _______ _______ _______ _____ _____    ______ ____
ROOT
ATOM      1  C   UNL     1      22.714  42.370  49.051  0.00  0.00    +0.000 C 
ATOM      2  CA  UNL     1      23.978  41.921  49.090  0.00  0.00    +0.000 C 
ENDROOT
BRANCH   1   8
ATOM      3  C   UNL     1      19.230  41.298  46.948  0.00  0.00    +0.000 A 
ATOM      4  C   UNL     1      20.316  40.423  46.922  0.00  0.00    +0.000 A 
ATOM      5  C   UNL     1      19.427  42.629  47.329  0.00  0.00    +0.000 A 
ATOM      6  C   UNL     1      21.526  40.804  47.522  0.00  0.00    +0.000 A 
ATOM      7  C   UNL     1      20.642  43.023  47.890  0.00  0.00    +0.000 A 
ATOM      8  C   UNL     1      21.661  42.081  48.072  0.00  0.00    +0.000 A 
BRANCH   3   9
ATOM      9  O   UNL     1      17.936  40.970  46.640  0.00  0.00    +0.000 OA
BRANCH   9  12
ATOM     10  I   UNL     1      16.763  37.721  45.583  0.00  0.00    +0.000 I 
ATOM     11  C   UNL     1      17.096  39.603  44.689  0.00  0.00    +0.000 A 
ATOM     12  C   UNL     1      17.504  40.776  45.344  0.00  0.00    +0.000 A 
ATOM     13  C   UNL     1      16.708  39.658  43.335  0.00  0.00    +0.000 A 
ATOM     14  C   UNL     1      17.357  41.998  44.659  0.00  0.00    +0.000 A 
ATOM     15  C   UNL     1      16.606  40.876  42.666  0.00  0.00    +0.000 A 
ATOM     16  C   UNL     1      16.895  42.053  43.342  0.00  0.00    +0.000 A 
ENDBRANCH   9  12
ENDBRANCH   3   9
ENDBRANCH   1   8
BRANCH   2  17
ATOM     17  N   UNL     1      24.448  40.914  48.264  0.00  0.00    +0.000 N 
ATOM     18  C   UNL     1      25.201  41.226  47.144  0.00  0.00    +0.000 C 
ATOM     19  O   UNL     1      25.548  42.365  46.849  0.00  0.00    +0.000 OA
ATOM     20  H   UNL     1      24.247  39.974  48.473  0.00  0.00    +0.000 HD
BRANCH  18  21
ATOM     21  C   UNL     1      25.568  40.010  46.314  0.00  0.00    +0.000 C 
BRANCH  21  22
ATOM     22  C   UNL     1      24.366  39.456  45.537  0.00  0.00    +0.000 C 
BRANCH  22  23
ATOM     23  C   UNL     1      23.708  40.461  44.587  0.00  0.00    +0.000 C 
BRANCH  23  24
ATOM     24  C   UNL     1      22.421  39.922  44.025  0.00  0.00    +0.000 C 
ATOM     25  O   UNL     1      22.205  38.724  43.907  0.00  0.00    +0.000 OA
ATOM     26  O   UNL     1      21.502  40.870  43.758  0.00  0.00    +0.000 OA
ENDBRANCH  23  24
ENDBRANCH  22  23
ENDBRANCH  21  22
ENDBRANCH  18  21
ENDBRANCH   2  17
BRANCH   2  27
ATOM     27  C   UNL     1      24.879  42.573  50.116  0.00  0.00    +0.000 C 
ATOM     28  O   UNL     1      26.019  42.941  49.884  0.00  0.00    +0.000 OA
ATOM     29  OXT UNL     1      24.276  42.772  51.307  0.00  0.00    +0.000 OA
ENDBRANCH   2  27
TORSDOF 9
ENDMDL
