MODEL 1
REMARK VINA RESULT:      -8.0      0.000      0.000
REMARK  Name = 323668
REMARK  7 active torsions:
REMARK  status: ('A' for Active; 'I' for Inactive)
REMARK    1  A    between atoms: C_3  and  O_5
REMARK    2  A    between atoms: O_5  and  C_8
REMARK    3  A    between atoms: C_14  and  C_15
REMARK    4  A    between atoms: C_16  and  N_17
REMARK    5  A    between atoms: C_16  and  C_18
REMARK    6  A    between atoms: C_19  and  C_23
REMARK    7  A    between atoms: N_21  and  N_24
REMARK                            x       y       z     vdW  Elec       q    Type
REMARK                         _______ _______ _______ _____ _____    ______ ____
ROOT
ATOM      1  C   UNL     1      20.045  42.299  43.480  0.00  0.00    +0.000 C 
ATOM      2  C   UNL     1      18.941  41.606  43.144  0.00  0.00    +0.000 C 
ENDROOT
BRANCH   1   8
ATOM      3  C   UNL     1      22.378  41.260  46.880  0.00  0.00    +0.000 A 
ATOM      4  C   UNL     1      21.638  42.441  46.896  0.00  0.00    +0.000 A 
ATOM      5  C   UNL     1      22.553  40.566  45.680  0.00  0.00    +0.000 A 
ATOM      6  C   UNL     1      20.944  42.843  45.747  0.00  0.00    +0.000 A 
ATOM      7  C   UNL     1      21.843  40.957  44.540  0.00  0.00    +0.000 A 
ATOM      8  C   UNL     1      20.996  42.072  44.580  0.00  0.00    +0.000 A 
BRANCH   3   9
ATOM      9  O   UNL     1      22.892  40.809  48.079  0.00  0.00    +0.000 OA
BRANCH   9  12
ATOM     10 BR   UNL     1      25.668  40.575  46.735  0.00  0.00    +0.000 Br
ATOM     11  C   UNL     1      25.154  41.580  48.260  0.00  0.00    +0.000 A 
ATOM     12  C   UNL     1      23.832  41.603  48.716  0.00  0.00    +0.000 A 
ATOM     13  C   UNL     1      26.145  42.315  48.925  0.00  0.00    +0.000 A 
ATOM     14  C   UNL     1      23.503  42.447  49.790  0.00  0.00    +0.000 A 
ATOM     15  C   UNL     1      25.817  43.088  50.039  0.00  0.00    +0.000 A 
ATOM     16  C   UNL     1      24.494  43.163  50.463  0.00  0.00    +0.000 A 
ENDBRANCH   9  12
ENDBRANCH   3   9
ENDBRANCH   1   8
BRANCH   2  17
ATOM     17  N   UNL     1      18.538  40.404  43.705  0.00  0.00    +0.000 N 
ATOM     18  C   UNL     1      17.426  40.327  44.528  0.00  0.00    +0.000 C 
ATOM     19  O   UNL     1      16.784  41.299  44.914  0.00  0.00    +0.000 OA
ATOM     20  H   UNL     1      19.054  39.587  43.517  0.00  0.00    +0.000 HD
BRANCH  18  21
ATOM     21  C   UNL     1      17.088  38.983  45.070  0.00  0.00    +0.000 A 
ATOM     22  C   UNL     1      17.540  37.866  44.353  0.00  0.00    +0.000 A 
ATOM     23  C   UNL     1      16.417  38.813  46.289  0.00  0.00    +0.000 A 
ATOM     24  C   UNL     1      17.358  36.583  44.862  0.00  0.00    +0.000 A 
ATOM     25  C   UNL     1      16.249  37.518  46.798  0.00  0.00    +0.000 A 
ATOM     26  C   UNL     1      16.722  36.410  46.090  0.00  0.00    +0.000 A 
ENDBRANCH  18  21
ENDBRANCH   2  17
BRANCH   2  27
ATOM     27  C   UNL     1      18.068  42.223  42.076  0.00  0.00    +0.000 C 
ATOM     28  O   UNL     1      18.219  43.366  41.660  0.00  0.00    +0.000 OA
ATOM     29  N   UNL     1      17.099  41.351  41.584  0.00  0.00    +0.000 N 
ATOM     30  H   UNL     1      16.955  40.474  42.007  0.00  0.00    +0.000 HD
BRANCH  29  31
ATOM     31  N   UNL     1      16.325  41.745  40.465  0.00  0.00    +0.000 NA
ATOM     32  H   UNL     1      15.372  41.950  40.765  0.00  0.00    +0.000 HD
ATOM     33  H   UNL     1      16.311  40.991  39.779  0.00  0.00    +0.000 HD
ENDBRANCH  29  31
ENDBRANCH   2  27
TORSDOF 7
ENDMDL
MODEL 2
REMARK VINA RESULT:      -6.5      3.652      7.558
REMARK  Name = 323668
REMARK  7 active torsions:
REMARK  status: ('A' for Active; 'I' for Inactive)
REMARK    1  A    between atoms: C_3  and  O_5
REMARK    2  A    between atoms: O_5  and  C_8
REMARK    3  A    between atoms: C_14  and  C_15
REMARK    4  A    between atoms: C_16  and  N_17
REMARK    5  A    between atoms: C_16  and  C_18
REMARK    6  A    between atoms: C_19  and  C_23
REMARK    7  A    between atoms: N_21  and  N_24
REMARK                            x       y       z     vdW  Elec       q    Type
REMARK                         _______ _______ _______ _____ _____    ______ ____
ROOT
ATOM      1  C   UNL     1      24.070  40.750  45.909  0.00  0.00    +0.000 C 
ATOM      2  C   UNL     1      23.865  41.611  46.924  0.00  0.00    +0.000 C 
ENDROOT
BRANCH   1   8
ATOM      3  C   UNL     1      20.894  39.398  43.425  0.00  0.00    +0.000 A 
ATOM      4  C   UNL     1      21.619  38.470  44.170  0.00  0.00    +0.000 A 
ATOM      5  C   UNL     1      21.365  40.708  43.299  0.00  0.00    +0.000 A 
ATOM      6  C   UNL     1      22.729  38.891  44.916  0.00  0.00    +0.000 A 
ATOM      7  C   UNL     1      22.459  41.131  44.060  0.00  0.00    +0.000 A 
ATOM      8  C   UNL     1      23.120  40.234  44.910  0.00  0.00    +0.000 A 
BRANCH   3   9
ATOM      9  O   UNL     1      19.708  38.979  42.858  0.00  0.00    +0.000 OA
BRANCH   9  12
ATOM     10 BR   UNL     1      17.956  41.527  42.948  0.00  0.00    +0.000 Br
ATOM     11  C   UNL     1      17.742  39.890  43.884  0.00  0.00    +0.000 A 
ATOM     12  C   UNL     1      18.616  38.814  43.696  0.00  0.00    +0.000 A 
ATOM     13  C   UNL     1      16.669  39.781  44.779  0.00  0.00    +0.000 A 
ATOM     14  C   UNL     1      18.341  37.599  44.344  0.00  0.00    +0.000 A 
ATOM     15  C   UNL     1      16.454  38.593  45.476  0.00  0.00    +0.000 A 
ATOM     16  C   UNL     1      17.283  37.498  45.250  0.00  0.00    +0.000 A 
ENDBRANCH   9  12
ENDBRANCH   3   9
ENDBRANCH   1   8
BRANCH   2  17
ATOM     17  N   UNL     1      22.699  42.324  47.156  0.00  0.00    +0.000 N 
ATOM     18  C   UNL     1      21.497  41.684  47.409  0.00  0.00    +0.000 C 
ATOM     19  O   UNL     1      21.335  40.470  47.340  0.00  0.00    +0.000 OA
ATOM     20  H   UNL     1      22.726  43.308  47.140  0.00  0.00    +0.000 HD
BRANCH  18  21
ATOM     21  C   UNL     1      20.314  42.554  47.647  0.00  0.00    +0.000 A 
ATOM     22  C   UNL     1      19.685  43.109  46.524  0.00  0.00    +0.000 A 
ATOM     23  C   UNL     1      19.780  42.759  48.927  0.00  0.00    +0.000 A 
ATOM     24  C   UNL     1      18.508  43.839  46.667  0.00  0.00    +0.000 A 
ATOM     25  C   UNL     1      18.588  43.485  49.058  0.00  0.00    +0.000 A 
ATOM     26  C   UNL     1      17.954  44.017  47.934  0.00  0.00    +0.000 A 
ENDBRANCH  18  21
ENDBRANCH   2  17
BRANCH   2  27
ATOM     27  C   UNL     1      25.010  41.780  47.894  0.00  0.00    +0.000 C 
ATOM     28  O   UNL     1      26.129  41.315  47.704  0.00  0.00    +0.000 OA
ATOM     29  N   UNL     1      24.681  42.549  49.008  0.00  0.00    +0.000 N 
ATOM     30  H   UNL     1      23.750  42.829  49.164  0.00  0.00    +0.000 HD
BRANCH  29  31
ATOM     31  N   UNL     1      25.706  42.926  49.910  0.00  0.00    +0.000 NA
ATOM     32  H   UNL     1      25.526  43.867  50.257  0.00  0.00    +0.000 HD
ATOM     33  H   UNL     1      26.606  42.907  49.430  0.00  0.00    +0.000 HD
ENDBRANCH  29  31
ENDBRANCH   2  27
TORSDOF 7
ENDMDL
MODEL 3
REMARK VINA RESULT:      -6.5      1.352      1.899
REMARK  Name = 323668
REMARK  7 active torsions:
REMARK  status: ('A' for Active; 'I' for Inactive)
REMARK    1  A    between atoms: C_3  and  O_5
REMARK    2  A    between atoms: O_5  and  C_8
REMARK    3  A    between atoms: C_14  and  C_15
REMARK    4  A    between atoms: C_16  and  N_17
REMARK    5  A    between atoms: C_16  and  C_18
REMARK    6  A    between atoms: C_19  and  C_23
REMARK    7  A    between atoms: N_21  and  N_24
REMARK                            x       y       z     vdW  Elec       q    Type
REMARK                         _______ _______ _______ _____ _____    ______ ____
ROOT
ATOM      1  C   UNL     1      19.993  42.342  43.272  0.00  0.00    +0.000 C 
ATOM      2  C   UNL     1      18.758  41.823  43.138  0.00  0.00    +0.000 C 
ENDROOT
BRANCH   1   8
ATOM      3  C   UNL     1      22.372  41.546  46.706  0.00  0.00    +0.000 A 
ATOM      4  C   UNL     1      21.637  42.729  46.645  0.00  0.00    +0.000 A 
ATOM      5  C   UNL     1      22.527  40.765  45.558  0.00  0.00    +0.000 A 
ATOM      6  C   UNL     1      20.927  43.048  45.479  0.00  0.00    +0.000 A 
ATOM      7  C   UNL     1      21.802  41.073  44.403  0.00  0.00    +0.000 A 
ATOM      8  C   UNL     1      20.960  42.192  44.372  0.00  0.00    +0.000 A 
BRANCH   3   9
ATOM      9  O   UNL     1      22.902  41.182  47.927  0.00  0.00    +0.000 OA
BRANCH   9  12
ATOM     10 BR   UNL     1      23.538  42.949  50.386  0.00  0.00    +0.000 Br
ATOM     11  C   UNL     1      24.728  42.136  49.152  0.00  0.00    +0.000 A 
ATOM     12  C   UNL     1      24.268  41.329  48.107  0.00  0.00    +0.000 A 
ATOM     13  C   UNL     1      26.101  42.364  49.318  0.00  0.00    +0.000 A 
ATOM     14  C   UNL     1      25.209  40.678  47.292  0.00  0.00    +0.000 A 
ATOM     15  C   UNL     1      27.021  41.772  48.452  0.00  0.00    +0.000 A 
ATOM     16  C   UNL     1      26.575  40.920  47.446  0.00  0.00    +0.000 A 
ENDBRANCH   9  12
ENDBRANCH   3   9
ENDBRANCH   1   8
BRANCH   2  17
ATOM     17  N   UNL     1      18.178  40.888  43.982  0.00  0.00    +0.000 N 
ATOM     18  C   UNL     1      18.527  39.549  43.929  0.00  0.00    +0.000 C 
ATOM     19  O   UNL     1      19.272  39.064  43.083  0.00  0.00    +0.000 OA
ATOM     20  H   UNL     1      17.501  41.183  44.633  0.00  0.00    +0.000 HD
BRANCH  18  21
ATOM     21  C   UNL     1      17.840  38.641  44.886  0.00  0.00    +0.000 A 
ATOM     22  C   UNL     1      17.177  39.230  45.971  0.00  0.00    +0.000 A 
ATOM     23  C   UNL     1      17.773  37.255  44.688  0.00  0.00    +0.000 A 
ATOM     24  C   UNL     1      16.420  38.449  46.840  0.00  0.00    +0.000 A 
ATOM     25  C   UNL     1      16.999  36.479  45.562  0.00  0.00    +0.000 A 
ATOM     26  C   UNL     1      16.322  37.075  46.629  0.00  0.00    +0.000 A 
ENDBRANCH  18  21
ENDBRANCH   2  17
BRANCH   2  27
ATOM     27  C   UNL     1      17.944  42.336  41.974  0.00  0.00    +0.000 C 
ATOM     28  O   UNL     1      18.133  43.428  41.448  0.00  0.00    +0.000 OA
ATOM     29  N   UNL     1      16.983  41.430  41.531  0.00  0.00    +0.000 N 
ATOM     30  H   UNL     1      16.805  40.603  42.036  0.00  0.00    +0.000 HD
BRANCH  29  31
ATOM     31  N   UNL     1      16.265  41.715  40.343  0.00  0.00    +0.000 NA
ATOM     32  H   UNL     1      15.601  42.468  40.519  0.00  0.00    +0.000 HD
ATOM     33  H   UNL     1      15.762  40.881  40.043  0.00  0.00    +0.000 HD
ENDBRANCH  29  31
ENDBRANCH   2  27
TORSDOF 7
ENDMDL
MODEL 4
REMARK VINA RESULT:      -6.4      4.057      8.096
REMARK  Name = 323668
REMARK  7 active torsions:
REMARK  status: ('A' for Active; 'I' for Inactive)
REMARK    1  A    between atoms: C_3  and  O_5
REMARK    2  A    between atoms: O_5  and  C_8
REMARK    3  A    between atoms: C_14  and  C_15
REMARK    4  A    between atoms: C_16  and  N_17
REMARK    5  A    between atoms: C_16  and  C_18
REMARK    6  A    between atoms: C_19  and  C_23
REMARK    7  A    between atoms: N_21  and  N_24
REMARK                            x       y       z     vdW  Elec       q    Type
REMARK                         _______ _______ _______ _____ _____    ______ ____
ROOT
ATOM      1  C   UNL     1      23.134  38.835  44.757  0.00  0.00    +0.000 C 
ATOM      2  C   UNL     1      23.779  38.686  45.928  0.00  0.00    +0.000 C 
ENDROOT
BRANCH   1   8
ATOM      3  C   UNL     1      20.224  41.829  43.945  0.00  0.00    +0.000 A 
ATOM      4  C   UNL     1      20.157  40.612  43.268  0.00  0.00    +0.000 A 
ATOM      5  C   UNL     1      21.367  42.153  44.680  0.00  0.00    +0.000 A 
ATOM      6  C   UNL     1      21.165  39.656  43.454  0.00  0.00    +0.000 A 
ATOM      7  C   UNL     1      22.361  41.190  44.882  0.00  0.00    +0.000 A 
ATOM      8  C   UNL     1      22.243  39.918  44.308  0.00  0.00    +0.000 A 
BRANCH   3   9
ATOM      9  O   UNL     1      19.125  42.661  43.877  0.00  0.00    +0.000 OA
BRANCH   9  12
ATOM     10 BR   UNL     1      16.771  40.654  43.934  0.00  0.00    +0.000 Br
ATOM     11  C   UNL     1      17.225  42.006  45.185  0.00  0.00    +0.000 A 
ATOM     12  C   UNL     1      18.358  42.810  45.022  0.00  0.00    +0.000 A 
ATOM     13  C   UNL     1      16.388  42.181  46.295  0.00  0.00    +0.000 A 
ATOM     14  C   UNL     1      18.690  43.723  46.037  0.00  0.00    +0.000 A 
ATOM     15  C   UNL     1      16.688  43.147  47.256  0.00  0.00    +0.000 A 
ATOM     16  C   UNL     1      17.846  43.909  47.133  0.00  0.00    +0.000 A 
ENDBRANCH   9  12
ENDBRANCH   3   9
ENDBRANCH   1   8
BRANCH   2  17
ATOM     17  N   UNL     1      23.851  39.632  46.939  0.00  0.00    +0.000 N 
ATOM     18  C   UNL     1      24.894  40.541  47.008  0.00  0.00    +0.000 C 
ATOM     19  O   UNL     1      25.875  40.521  46.272  0.00  0.00    +0.000 OA
ATOM     20  H   UNL     1      23.145  39.657  47.625  0.00  0.00    +0.000 HD
BRANCH  18  21
ATOM     21  C   UNL     1      24.861  41.511  48.135  0.00  0.00    +0.000 A 
ATOM     22  C   UNL     1      23.625  41.735  48.758  0.00  0.00    +0.000 A 
ATOM     23  C   UNL     1      26.020  42.127  48.628  0.00  0.00    +0.000 A 
ATOM     24  C   UNL     1      23.544  42.543  49.889  0.00  0.00    +0.000 A 
ATOM     25  C   UNL     1      25.929  42.928  49.775  0.00  0.00    +0.000 A 
ATOM     26  C   UNL     1      24.699  43.130  50.404  0.00  0.00    +0.000 A 
ENDBRANCH  18  21
ENDBRANCH   2  17
BRANCH   2  27
ATOM     27  C   UNL     1      24.458  37.354  46.148  0.00  0.00    +0.000 C 
ATOM     28  O   UNL     1      24.026  36.495  46.908  0.00  0.00    +0.000 OA
ATOM     29  N   UNL     1      25.603  37.184  45.373  0.00  0.00    +0.000 N 
ATOM     30  H   UNL     1      25.964  37.932  44.844  0.00  0.00    +0.000 HD
BRANCH  29  31
ATOM     31  N   UNL     1      26.240  35.918  45.356  0.00  0.00    +0.000 NA
ATOM     32  H   UNL     1      25.545  35.190  45.195  0.00  0.00    +0.000 HD
ATOM     33  H   UNL     1      26.699  35.757  46.253  0.00  0.00    +0.000 HD
ENDBRANCH  29  31
ENDBRANCH   2  27
TORSDOF 7
ENDMDL
MODEL 5
REMARK VINA RESULT:      -5.7      3.547      8.339
REMARK  Name = 323668
REMARK  7 active torsions:
REMARK  status: ('A' for Active; 'I' for Inactive)
REMARK    1  A    between atoms: C_3  and  O_5
REMARK    2  A    between atoms: O_5  and  C_8
REMARK    3  A    between atoms: C_14  and  C_15
REMARK    4  A    between atoms: C_16  and  N_17
REMARK    5  A    between atoms: C_16  and  C_18
REMARK    6  A    between atoms: C_19  and  C_23
REMARK    7  A    between atoms: N_21  and  N_24
REMARK                            x       y       z     vdW  Elec       q    Type
REMARK                         _______ _______ _______ _____ _____    ______ ____
ROOT
ATOM      1  C   UNL     1      23.174  39.198  44.540  0.00  0.00    +0.000 C 
ATOM      2  C   UNL     1      23.979  39.129  45.617  0.00  0.00    +0.000 C 
ENDROOT
BRANCH   1   8
ATOM      3  C   UNL     1      19.330  41.006  44.342  0.00  0.00    +0.000 A 
ATOM      4  C   UNL     1      19.740  40.162  43.311  0.00  0.00    +0.000 A 
ATOM      5  C   UNL     1      20.257  41.450  45.287  0.00  0.00    +0.000 A 
ATOM      6  C   UNL     1      21.040  39.639  43.316  0.00  0.00    +0.000 A 
ATOM      7  C   UNL     1      21.548  40.911  45.303  0.00  0.00    +0.000 A 
ATOM      8  C   UNL     1      21.932  39.965  44.344  0.00  0.00    +0.000 A 
BRANCH   3   9
ATOM      9  O   UNL     1      17.994  41.348  44.396  0.00  0.00    +0.000 OA
BRANCH   9  12
ATOM     10 BR   UNL     1      16.948  42.947  46.829  0.00  0.00    +0.000 Br
ATOM     11  C   UNL     1      16.636  41.135  46.360  0.00  0.00    +0.000 A 
ATOM     12  C   UNL     1      17.162  40.575  45.191  0.00  0.00    +0.000 A 
ATOM     13  C   UNL     1      15.851  40.360  47.223  0.00  0.00    +0.000 A 
ATOM     14  C   UNL     1      16.809  39.258  44.854  0.00  0.00    +0.000 A 
ATOM     15  C   UNL     1      15.573  39.028  46.915  0.00  0.00    +0.000 A 
ATOM     16  C   UNL     1      16.042  38.481  45.724  0.00  0.00    +0.000 A 
ENDBRANCH   9  12
ENDBRANCH   3   9
ENDBRANCH   1   8
BRANCH   2  17
ATOM     17  N   UNL     1      23.871  39.909  46.758  0.00  0.00    +0.000 N 
ATOM     18  C   UNL     1      24.787  40.909  47.040  0.00  0.00    +0.000 C 
ATOM     19  O   UNL     1      25.806  41.115  46.389  0.00  0.00    +0.000 OA
ATOM     20  H   UNL     1      23.128  39.748  47.383  0.00  0.00    +0.000 HD
BRANCH  18  21
ATOM     21  C   UNL     1      24.568  41.683  48.292  0.00  0.00    +0.000 A 
ATOM     22  C   UNL     1      25.694  42.247  48.907  0.00  0.00    +0.000 A 
ATOM     23  C   UNL     1      23.287  41.924  48.810  0.00  0.00    +0.000 A 
ATOM     24  C   UNL     1      25.547  43.076  50.016  0.00  0.00    +0.000 A 
ATOM     25  C   UNL     1      23.150  42.770  49.919  0.00  0.00    +0.000 A 
ATOM     26  C   UNL     1      24.274  43.346  50.515  0.00  0.00    +0.000 A 
ENDBRANCH  18  21
ENDBRANCH   2  17
BRANCH   2  27
ATOM     27  C   UNL     1      25.071  38.088  45.565  0.00  0.00    +0.000 C 
ATOM     28  O   UNL     1      26.245  38.353  45.327  0.00  0.00    +0.000 OA
ATOM     29  N   UNL     1      24.621  36.801  45.850  0.00  0.00    +0.000 N 
ATOM     30  H   UNL     1      23.658  36.618  45.948  0.00  0.00    +0.000 HD
BRANCH  29  31
ATOM     31  N   UNL     1      25.569  35.758  46.001  0.00  0.00    +0.000 NA
ATOM     32  H   UNL     1      26.258  36.024  46.704  0.00  0.00    +0.000 HD
ATOM     33  H   UNL     1      26.038  35.595  45.110  0.00  0.00    +0.000 HD
ENDBRANCH  29  31
ENDBRANCH   2  27
TORSDOF 7
ENDMDL
MODEL 6
REMARK VINA RESULT:      -5.5      1.375      2.113
REMARK  Name = 323668
REMARK  7 active torsions:
REMARK  status: ('A' for Active; 'I' for Inactive)
REMARK    1  A    between atoms: C_3  and  O_5
REMARK    2  A    between atoms: O_5  and  C_8
REMARK    3  A    between atoms: C_14  and  C_15
REMARK    4  A    between atoms: C_16  and  N_17
REMARK    5  A    between atoms: C_16  and  C_18
REMARK    6  A    between atoms: C_19  and  C_23
REMARK    7  A    between atoms: N_21  and  N_24
REMARK                            x       y       z     vdW  Elec       q    Type
REMARK                         _______ _______ _______ _____ _____    ______ ____
ROOT
ATOM      1  C   UNL     1      20.404  41.655  43.037  0.00  0.00    +0.000 C 
ATOM      2  C   UNL     1      19.063  41.589  43.135  0.00  0.00    +0.000 C 
ENDROOT
BRANCH   1   8
ATOM      3  C   UNL     1      23.747  40.843  45.537  0.00  0.00    +0.000 A 
ATOM      4  C   UNL     1      23.465  39.984  44.476  0.00  0.00    +0.000 A 
ATOM      5  C   UNL     1      22.807  41.800  45.925  0.00  0.00    +0.000 A 
ATOM      6  C   UNL     1      22.311  40.185  43.706  0.00  0.00    +0.000 A 
ATOM      7  C   UNL     1      21.667  42.013  45.144  0.00  0.00    +0.000 A 
ATOM      8  C   UNL     1      21.436  41.237  44.001  0.00  0.00    +0.000 A 
BRANCH   3   9
ATOM      9  O   UNL     1      24.978  40.722  46.149  0.00  0.00    +0.000 OA
BRANCH   9  12
ATOM     10 BR   UNL     1      23.412  39.418  48.476  0.00  0.00    +0.000 Br
ATOM     11  C   UNL     1      24.503  40.970  48.485  0.00  0.00    +0.000 A 
ATOM     12  C   UNL     1      25.176  41.405  47.339  0.00  0.00    +0.000 A 
ATOM     13  C   UNL     1      24.624  41.679  49.688  0.00  0.00    +0.000 A 
ATOM     14  C   UNL     1      26.046  42.502  47.442  0.00  0.00    +0.000 A 
ATOM     15  C   UNL     1      25.431  42.815  49.755  0.00  0.00    +0.000 A 
ATOM     16  C   UNL     1      26.151  43.220  48.635  0.00  0.00    +0.000 A 
ENDBRANCH   9  12
ENDBRANCH   3   9
ENDBRANCH   1   8
BRANCH   2  17
ATOM     17  N   UNL     1      18.355  40.959  44.147  0.00  0.00    +0.000 N 
ATOM     18  C   UNL     1      18.366  39.581  44.288  0.00  0.00    +0.000 C 
ATOM     19  O   UNL     1      18.891  38.810  43.491  0.00  0.00    +0.000 OA
ATOM     20  H   UNL     1      17.832  41.503  44.779  0.00  0.00    +0.000 HD
BRANCH  18  21
ATOM     21  C   UNL     1      17.572  39.018  45.413  0.00  0.00    +0.000 A 
ATOM     22  C   UNL     1      17.153  39.906  46.414  0.00  0.00    +0.000 A 
ATOM     23  C   UNL     1      17.175  37.675  45.453  0.00  0.00    +0.000 A 
ATOM     24  C   UNL     1      16.313  39.469  47.434  0.00  0.00    +0.000 A 
ATOM     25  C   UNL     1      16.320  37.248  46.478  0.00  0.00    +0.000 A 
ATOM     26  C   UNL     1      15.887  38.142  47.459  0.00  0.00    +0.000 A 
ENDBRANCH  18  21
ENDBRANCH   2  17
BRANCH   2  27
ATOM     27  C   UNL     1      18.283  42.291  42.049  0.00  0.00    +0.000 C 
ATOM     28  O   UNL     1      18.515  43.439  41.686  0.00  0.00    +0.000 OA
ATOM     29  N   UNL     1      17.298  41.492  41.473  0.00  0.00    +0.000 N 
ATOM     30  H   UNL     1      17.086  40.608  41.852  0.00  0.00    +0.000 HD
BRANCH  29  31
ATOM     31  N   UNL     1      16.607  41.968  40.331  0.00  0.00    +0.000 NA
ATOM     32  H   UNL     1      16.320  42.934  40.485  0.00  0.00    +0.000 HD
ATOM     33  H   UNL     1      15.782  41.390  40.167  0.00  0.00    +0.000 HD
ENDBRANCH  29  31
ENDBRANCH   2  27
TORSDOF 7
ENDMDL
MODEL 7
REMARK VINA RESULT:      -5.1      1.826      2.189
REMARK  Name = 323668
REMARK  7 active torsions:
REMARK  status: ('A' for Active; 'I' for Inactive)
REMARK    1  A    between atoms: C_3  and  O_5
REMARK    2  A    between atoms: O_5  and  C_8
REMARK    3  A    between atoms: C_14  and  C_15
REMARK    4  A    between atoms: C_16  and  N_17
REMARK    5  A    between atoms: C_16  and  C_18
REMARK    6  A    between atoms: C_19  and  C_23
REMARK    7  A    between atoms: N_21  and  N_24
REMARK                            x       y       z     vdW  Elec       q    Type
REMARK                         _______ _______ _______ _____ _____    ______ ____
ROOT
ATOM      1  C   UNL     1      18.878  43.442  45.486  0.00  0.00    +0.000 C 
ATOM      2  C   UNL     1      17.931  42.681  44.905  0.00  0.00    +0.000 C 
ENDROOT
BRANCH   1   8
ATOM      3  C   UNL     1      22.171  41.726  47.559  0.00  0.00    +0.000 A 
ATOM      4  C   UNL     1      20.947  41.857  48.213  0.00  0.00    +0.000 A 
ATOM      5  C   UNL     1      22.381  42.378  46.341  0.00  0.00    +0.000 A 
ATOM      6  C   UNL     1      19.883  42.509  47.574  0.00  0.00    +0.000 A 
ATOM      7  C   UNL     1      21.312  43.009  45.696  0.00  0.00    +0.000 A 
ATOM      8  C   UNL     1      20.044  43.038  46.289  0.00  0.00    +0.000 A 
BRANCH   3   9
ATOM      9  O   UNL     1      23.127  40.922  48.144  0.00  0.00    +0.000 OA
BRANCH   9  12
ATOM     10 BR   UNL     1      25.591  40.356  46.361  0.00  0.00    +0.000 Br
ATOM     11  C   UNL     1      25.482  41.343  47.977  0.00  0.00    +0.000 A 
ATOM     12  C   UNL     1      24.266  41.534  48.643  0.00  0.00    +0.000 A 
ATOM     13  C   UNL     1      26.665  41.888  48.494  0.00  0.00    +0.000 A 
ATOM     14  C   UNL     1      24.242  42.359  49.779  0.00  0.00    +0.000 A 
ATOM     15  C   UNL     1      26.637  42.640  49.669  0.00  0.00    +0.000 A 
ATOM     16  C   UNL     1      25.423  42.885  50.304  0.00  0.00    +0.000 A 
ENDBRANCH   9  12
ENDBRANCH   3   9
ENDBRANCH   1   8
BRANCH   2  17
ATOM     17  N   UNL     1      17.943  41.297  44.824  0.00  0.00    +0.000 N 
ATOM     18  C   UNL     1      17.155  40.517  45.655  0.00  0.00    +0.000 C 
ATOM     19  O   UNL     1      16.485  40.957  46.583  0.00  0.00    +0.000 OA
ATOM     20  H   UNL     1      18.525  40.858  44.162  0.00  0.00    +0.000 HD
BRANCH  18  21
ATOM     21  C   UNL     1      17.249  39.043  45.473  0.00  0.00    +0.000 A 
ATOM     22  C   UNL     1      16.428  38.241  46.279  0.00  0.00    +0.000 A 
ATOM     23  C   UNL     1      18.055  38.459  44.486  0.00  0.00    +0.000 A 
ATOM     24  C   UNL     1      16.382  36.863  46.083  0.00  0.00    +0.000 A 
ATOM     25  C   UNL     1      17.992  37.072  44.290  0.00  0.00    +0.000 A 
ATOM     26  C   UNL     1      17.156  36.281  45.080  0.00  0.00    +0.000 A 
ENDBRANCH  18  21
ENDBRANCH   2  17
BRANCH   2  27
ATOM     27  C   UNL     1      16.752  43.420  44.318  0.00  0.00    +0.000 C 
ATOM     28  O   UNL     1      16.151  43.045  43.317  0.00  0.00    +0.000 OA
ATOM     29  N   UNL     1      16.391  44.550  45.048  0.00  0.00    +0.000 N 
ATOM     30  H   UNL     1      16.953  44.865  45.793  0.00  0.00    +0.000 HD
BRANCH  29  31
ATOM     31  N   UNL     1      15.201  45.239  44.704  0.00  0.00    +0.000 NA
ATOM     32  H   UNL     1      15.386  46.241  44.667  0.00  0.00    +0.000 HD
ATOM     33  H   UNL     1      14.485  45.051  45.406  0.00  0.00    +0.000 HD
ENDBRANCH  29  31
ENDBRANCH   2  27
TORSDOF 7
ENDMDL
