MODEL 1
REMARK VINA RESULT:      -8.0      0.000      0.000
REMARK  Name = 322536
REMARK  8 active torsions:
REMARK  status: ('A' for Active; 'I' for Inactive)
REMARK    1  A    between atoms: C_3  and  O_5
REMARK    2  A    between atoms: O_5  and  C_8
REMARK    3  A    between atoms: C_14  and  C_15
REMARK    4  A    between atoms: CA_16  and  N_17
REMARK    5  A    between atoms: CA_16  and  C_18
REMARK    6  A    between atoms: C_19  and  C_23
REMARK    7  A    between atoms: C_23  and  C_24
REMARK    8  A    between atoms: C_24  and  C_25
REMARK                            x       y       z     vdW  Elec       q    Type
REMARK                         _______ _______ _______ _____ _____    ______ ____
ROOT
ATOM      1  C   UNL     1      22.557  42.189  48.647  0.00  0.00    +0.000 C 
ATOM      2  CA  UNL     1      23.841  41.869  48.376  0.00  0.00    +0.000 C 
ENDROOT
BRANCH   1   8
ATOM      3  C   UNL     1      18.757  41.464  46.899  0.00  0.00    +0.000 A 
ATOM      4  C   UNL     1      19.689  40.431  46.954  0.00  0.00    +0.000 A 
ATOM      5  C   UNL     1      19.139  42.775  47.207  0.00  0.00    +0.000 A 
ATOM      6  C   UNL     1      20.962  40.685  47.469  0.00  0.00    +0.000 A 
ATOM      7  C   UNL     1      20.411  43.025  47.726  0.00  0.00    +0.000 A 
ATOM      8  C   UNL     1      21.318  41.974  47.891  0.00  0.00    +0.000 A 
BRANCH   3   9
ATOM      9  O   UNL     1      17.455  41.134  46.588  0.00  0.00    +0.000 OA
BRANCH   9  12
ATOM     10 BR   UNL     1      17.004  38.247  45.591  0.00  0.00    +0.000 Br
ATOM     11  C   UNL     1      16.919  39.875  44.622  0.00  0.00    +0.000 A 
ATOM     12  C   UNL     1      17.112  41.112  45.244  0.00  0.00    +0.000 A 
ATOM     13  C   UNL     1      16.657  39.812  43.248  0.00  0.00    +0.000 A 
ATOM     14  C   UNL     1      16.942  42.285  44.491  0.00  0.00    +0.000 A 
ATOM     15  C   UNL     1      16.570  40.983  42.494  0.00  0.00    +0.000 A 
ATOM     16  C   UNL     1      16.699  42.221  43.118  0.00  0.00    +0.000 A 
ENDBRANCH   9  12
ENDBRANCH   3   9
ENDBRANCH   1   8
BRANCH   2  17
ATOM     17  N   UNL     1      24.301  41.114  47.304  0.00  0.00    +0.000 N 
ATOM     18  C   UNL     1      24.128  39.749  47.129  0.00  0.00    +0.000 C 
ATOM     19  O   UNL     1      23.703  38.970  47.971  0.00  0.00    +0.000 OA
ATOM     20  H   UNL     1      24.799  41.593  46.601  0.00  0.00    +0.000 HD
BRANCH  18  21
ATOM     21  C   UNL     1      24.671  39.240  45.808  0.00  0.00    +0.000 C 
BRANCH  21  22
ATOM     22  C   UNL     1      23.560  38.534  45.033  0.00  0.00    +0.000 C 
BRANCH  22  23
ATOM     23  C   UNL     1      22.541  39.499  44.481  0.00  0.00    +0.000 A 
ATOM     24  C   UNL     1      21.358  39.012  43.902  0.00  0.00    +0.000 A 
ATOM     25  C   UNL     1      22.752  40.884  44.550  0.00  0.00    +0.000 A 
ATOM     26  C   UNL     1      20.395  39.896  43.417  0.00  0.00    +0.000 A 
ATOM     27  C   UNL     1      21.786  41.766  44.065  0.00  0.00    +0.000 A 
ATOM     28  C   UNL     1      20.615  41.263  43.508  0.00  0.00    +0.000 A 
ATOM     29  F   UNL     1      19.684  42.112  43.053  0.00  0.00    +0.000 F 
ENDBRANCH  22  23
ENDBRANCH  21  22
ENDBRANCH  18  21
ENDBRANCH   2  17
BRANCH   2  30
ATOM     30  C   UNL     1      24.813  42.482  49.367  0.00  0.00    +0.000 C 
ATOM     31  O   UNL     1      26.021  42.551  49.187  0.00  0.00    +0.000 OA
ATOM     32  OXT UNL     1      24.264  42.964  50.501  0.00  0.00    +0.000 OA
ENDBRANCH   2  30
TORSDOF 8
ENDMDL
MODEL 2
REMARK VINA RESULT:      -7.8      3.192      7.479
REMARK  Name = 322536
REMARK  8 active torsions:
REMARK  status: ('A' for Active; 'I' for Inactive)
REMARK    1  A    between atoms: C_3  and  O_5
REMARK    2  A    between atoms: O_5  and  C_8
REMARK    3  A    between atoms: C_14  and  C_15
REMARK    4  A    between atoms: CA_16  and  N_17
REMARK    5  A    between atoms: CA_16  and  C_18
REMARK    6  A    between atoms: C_19  and  C_23
REMARK    7  A    between atoms: C_23  and  C_24
REMARK    8  A    between atoms: C_24  and  C_25
REMARK                            x       y       z     vdW  Elec       q    Type
REMARK                         _______ _______ _______ _____ _____    ______ ____
ROOT
ATOM      1  C   UNL     1      20.158  41.951  43.580  0.00  0.00    +0.000 C 
ATOM      2  CA  UNL     1      18.810  42.028  43.582  0.00  0.00    +0.000 C 
ENDROOT
BRANCH   1   8
ATOM      3  C   UNL     1      22.547  40.933  46.938  0.00  0.00    +0.000 A 
ATOM      4  C   UNL     1      22.109  42.246  46.787  0.00  0.00    +0.000 A 
ATOM      5  C   UNL     1      22.395  40.015  45.892  0.00  0.00    +0.000 A 
ATOM      6  C   UNL     1      21.378  42.597  45.651  0.00  0.00    +0.000 A 
ATOM      7  C   UNL     1      21.661  40.368  44.759  0.00  0.00    +0.000 A 
ATOM      8  C   UNL     1      21.120  41.653  44.648  0.00  0.00    +0.000 A 
BRANCH   3   9
ATOM      9  O   UNL     1      23.076  40.572  48.160  0.00  0.00    +0.000 OA
BRANCH   9  12
ATOM     10 BR   UNL     1      25.772  40.586  46.656  0.00  0.00    +0.000 Br
ATOM     11  C   UNL     1      25.265  41.544  48.211  0.00  0.00    +0.000 A 
ATOM     12  C   UNL     1      23.975  41.451  48.744  0.00  0.00    +0.000 A 
ATOM     13  C   UNL     1      26.223  42.357  48.828  0.00  0.00    +0.000 A 
ATOM     14  C   UNL     1      23.634  42.259  49.841  0.00  0.00    +0.000 A 
ATOM     15  C   UNL     1      25.894  43.093  49.967  0.00  0.00    +0.000 A 
ATOM     16  C   UNL     1      24.595  43.055  50.467  0.00  0.00    +0.000 A 
ENDBRANCH   9  12
ENDBRANCH   3   9
ENDBRANCH   1   8
BRANCH   2  17
ATOM     17  N   UNL     1      17.960  41.711  44.635  0.00  0.00    +0.000 N 
ATOM     18  C   UNL     1      17.604  42.549  45.681  0.00  0.00    +0.000 C 
ATOM     19  O   UNL     1      18.119  43.629  45.938  0.00  0.00    +0.000 OA
ATOM     20  H   UNL     1      17.574  40.804  44.640  0.00  0.00    +0.000 HD
BRANCH  18  21
ATOM     21  C   UNL     1      16.586  41.934  46.622  0.00  0.00    +0.000 C 
BRANCH  21  22
ATOM     22  C   UNL     1      17.215  40.753  47.359  0.00  0.00    +0.000 C 
BRANCH  22  23
ATOM     23  C   UNL     1      17.159  39.478  46.555  0.00  0.00    +0.000 A 
ATOM     24  C   UNL     1      16.008  38.676  46.595  0.00  0.00    +0.000 A 
ATOM     25  C   UNL     1      18.242  39.086  45.755  0.00  0.00    +0.000 A 
ATOM     26  C   UNL     1      15.933  37.512  45.831  0.00  0.00    +0.000 A 
ATOM     27  C   UNL     1      18.164  37.922  44.990  0.00  0.00    +0.000 A 
ATOM     28  C   UNL     1      17.009  37.148  45.033  0.00  0.00    +0.000 A 
ATOM     29  F   UNL     1      16.932  36.036  44.290  0.00  0.00    +0.000 F 
ENDBRANCH  22  23
ENDBRANCH  21  22
ENDBRANCH  18  21
ENDBRANCH   2  17
BRANCH   2  30
ATOM     30  C   UNL     1      18.258  42.574  42.278  0.00  0.00    +0.000 C 
ATOM     31  O   UNL     1      18.598  43.640  41.784  0.00  0.00    +0.000 OA
ATOM     32  OXT UNL     1      17.336  41.802  41.666  0.00  0.00    +0.000 OA
ENDBRANCH   2  30
TORSDOF 8
ENDMDL
MODEL 3
REMARK VINA RESULT:      -7.7      3.043      7.361
REMARK  Name = 322536
REMARK  8 active torsions:
REMARK  status: ('A' for Active; 'I' for Inactive)
REMARK    1  A    between atoms: C_3  and  O_5
REMARK    2  A    between atoms: O_5  and  C_8
REMARK    3  A    between atoms: C_14  and  C_15
REMARK    4  A    between atoms: CA_16  and  N_17
REMARK    5  A    between atoms: CA_16  and  C_18
REMARK    6  A    between atoms: C_19  and  C_23
REMARK    7  A    between atoms: C_23  and  C_24
REMARK    8  A    between atoms: C_24  and  C_25
REMARK                            x       y       z     vdW  Elec       q    Type
REMARK                         _______ _______ _______ _____ _____    ______ ____
ROOT
ATOM      1  C   UNL     1      20.113  41.883  43.497  0.00  0.00    +0.000 C 
ATOM      2  CA  UNL     1      18.785  41.677  43.376  0.00  0.00    +0.000 C 
ENDROOT
BRANCH   1   8
ATOM      3  C   UNL     1      22.442  40.873  46.900  0.00  0.00    +0.000 A 
ATOM      4  C   UNL     1      22.195  42.214  46.618  0.00  0.00    +0.000 A 
ATOM      5  C   UNL     1      22.122  39.885  45.961  0.00  0.00    +0.000 A 
ATOM      6  C   UNL     1      21.485  42.551  45.464  0.00  0.00    +0.000 A 
ATOM      7  C   UNL     1      21.408  40.224  44.811  0.00  0.00    +0.000 A 
ATOM      8  C   UNL     1      21.057  41.557  44.573  0.00  0.00    +0.000 A 
BRANCH   3   9
ATOM      9  O   UNL     1      22.953  40.565  48.143  0.00  0.00    +0.000 OA
BRANCH   9  12
ATOM     10 BR   UNL     1      25.648  40.445  46.641  0.00  0.00    +0.000 Br
ATOM     11  C   UNL     1      25.164  41.488  48.149  0.00  0.00    +0.000 A 
ATOM     12  C   UNL     1      23.873  41.450  48.685  0.00  0.00    +0.000 A 
ATOM     13  C   UNL     1      26.142  42.307  48.726  0.00  0.00    +0.000 A 
ATOM     14  C   UNL     1      23.552  42.317  49.743  0.00  0.00    +0.000 A 
ATOM     15  C   UNL     1      25.830  43.104  49.829  0.00  0.00    +0.000 A 
ATOM     16  C   UNL     1      24.532  43.120  50.329  0.00  0.00    +0.000 A 
ENDBRANCH   9  12
ENDBRANCH   3   9
ENDBRANCH   1   8
BRANCH   2  17
ATOM     17  N   UNL     1      17.971  40.962  44.247  0.00  0.00    +0.000 N 
ATOM     18  C   UNL     1      17.888  39.581  44.342  0.00  0.00    +0.000 C 
ATOM     19  O   UNL     1      18.379  38.780  43.558  0.00  0.00    +0.000 OA
ATOM     20  H   UNL     1      17.398  41.485  44.854  0.00  0.00    +0.000 HD
BRANCH  18  21
ATOM     21  C   UNL     1      16.973  39.111  45.457  0.00  0.00    +0.000 C 
BRANCH  21  22
ATOM     22  C   UNL     1      17.606  39.429  46.810  0.00  0.00    +0.000 C 
BRANCH  22  23
ATOM     23  C   UNL     1      17.715  40.912  47.060  0.00  0.00    +0.000 A 
ATOM     24  C   UNL     1      18.863  41.436  47.674  0.00  0.00    +0.000 A 
ATOM     25  C   UNL     1      16.686  41.783  46.673  0.00  0.00    +0.000 A 
ATOM     26  C   UNL     1      18.988  42.809  47.881  0.00  0.00    +0.000 A 
ATOM     27  C   UNL     1      16.813  43.157  46.879  0.00  0.00    +0.000 A 
ATOM     28  C   UNL     1      17.965  43.656  47.478  0.00  0.00    +0.000 A 
ATOM     29  F   UNL     1      18.091  44.976  47.665  0.00  0.00    +0.000 F 
ENDBRANCH  22  23
ENDBRANCH  21  22
ENDBRANCH  18  21
ENDBRANCH   2  17
BRANCH   2  30
ATOM     30  C   UNL     1      18.197  42.377  42.165  0.00  0.00    +0.000 C 
ATOM     31  O   UNL     1      18.571  43.468  41.756  0.00  0.00    +0.000 OA
ATOM     32  OXT UNL     1      17.202  41.718  41.536  0.00  0.00    +0.000 OA
ENDBRANCH   2  30
TORSDOF 8
ENDMDL
MODEL 4
REMARK VINA RESULT:      -7.3      3.227      7.529
REMARK  Name = 322536
REMARK  8 active torsions:
REMARK  status: ('A' for Active; 'I' for Inactive)
REMARK    1  A    between atoms: C_3  and  O_5
REMARK    2  A    between atoms: O_5  and  C_8
REMARK    3  A    between atoms: C_14  and  C_15
REMARK    4  A    between atoms: CA_16  and  N_17
REMARK    5  A    between atoms: CA_16  and  C_18
REMARK    6  A    between atoms: C_19  and  C_23
REMARK    7  A    between atoms: C_23  and  C_24
REMARK    8  A    between atoms: C_24  and  C_25
REMARK                            x       y       z     vdW  Elec       q    Type
REMARK                         _______ _______ _______ _____ _____    ______ ____
ROOT
ATOM      1  C   UNL     1      18.826  41.378  42.898  0.00  0.00    +0.000 C 
ATOM      2  CA  UNL     1      17.518  41.066  43.019  0.00  0.00    +0.000 C 
ENDROOT
BRANCH   1   8
ATOM      3  C   UNL     1      21.593  41.576  46.111  0.00  0.00    +0.000 A 
ATOM      4  C   UNL     1      21.163  42.756  45.509  0.00  0.00    +0.000 A 
ATOM      5  C   UNL     1      21.297  40.339  45.527  0.00  0.00    +0.000 A 
ATOM      6  C   UNL     1      20.303  42.690  44.411  0.00  0.00    +0.000 A 
ATOM      7  C   UNL     1      20.435  40.276  44.431  0.00  0.00    +0.000 A 
ATOM      8  C   UNL     1      19.906  41.451  43.888  0.00  0.00    +0.000 A 
BRANCH   3   9
ATOM      9  O   UNL     1      22.262  41.679  47.313  0.00  0.00    +0.000 OA
BRANCH   9  12
ATOM     10 BR   UNL     1      23.621  42.689  49.895  0.00  0.00    +0.000 Br
ATOM     11  C   UNL     1      24.399  41.853  48.381  0.00  0.00    +0.000 A 
ATOM     12  C   UNL     1      23.624  41.417  47.302  0.00  0.00    +0.000 A 
ATOM     13  C   UNL     1      25.789  41.682  48.364  0.00  0.00    +0.000 A 
ATOM     14  C   UNL     1      24.249  40.721  46.255  0.00  0.00    +0.000 A 
ATOM     15  C   UNL     1      26.407  41.060  47.278  0.00  0.00    +0.000 A 
ATOM     16  C   UNL     1      25.636  40.566  46.229  0.00  0.00    +0.000 A 
ENDBRANCH   9  12
ENDBRANCH   3   9
ENDBRANCH   1   8
BRANCH   2  17
ATOM     17  N   UNL     1      16.875  40.603  44.161  0.00  0.00    +0.000 N 
ATOM     18  C   UNL     1      16.960  39.322  44.686  0.00  0.00    +0.000 C 
ATOM     19  O   UNL     1      17.463  38.355  44.131  0.00  0.00    +0.000 OA
ATOM     20  H   UNL     1      16.305  41.245  44.644  0.00  0.00    +0.000 HD
BRANCH  18  21
ATOM     21  C   UNL     1      16.211  39.160  45.995  0.00  0.00    +0.000 C 
BRANCH  21  22
ATOM     22  C   UNL     1      17.142  39.483  47.162  0.00  0.00    +0.000 C 
BRANCH  22  23
ATOM     23  C   UNL     1      17.477  40.951  47.241  0.00  0.00    +0.000 A 
ATOM     24  C   UNL     1      16.590  41.901  46.709  0.00  0.00    +0.000 A 
ATOM     25  C   UNL     1      18.660  41.386  47.854  0.00  0.00    +0.000 A 
ATOM     26  C   UNL     1      16.875  43.262  46.805  0.00  0.00    +0.000 A 
ATOM     27  C   UNL     1      18.942  42.749  47.951  0.00  0.00    +0.000 A 
ATOM     28  C   UNL     1      18.044  43.673  47.429  0.00  0.00    +0.000 A 
ATOM     29  F   UNL     1      18.310  44.982  47.533  0.00  0.00    +0.000 F 
ENDBRANCH  22  23
ENDBRANCH  21  22
ENDBRANCH  18  21
ENDBRANCH   2  17
BRANCH   2  30
ATOM     30  C   UNL     1      16.739  41.327  41.743  0.00  0.00    +0.000 C 
ATOM     31  O   UNL     1      17.191  41.920  40.773  0.00  0.00    +0.000 OA
ATOM     32  OXT UNL     1      15.472  40.862  41.727  0.00  0.00    +0.000 OA
ENDBRANCH   2  30
TORSDOF 8
ENDMDL
MODEL 5
REMARK VINA RESULT:      -7.1      2.907      6.996
REMARK  Name = 322536
REMARK  8 active torsions:
REMARK  status: ('A' for Active; 'I' for Inactive)
REMARK    1  A    between atoms: C_3  and  O_5
REMARK    2  A    between atoms: O_5  and  C_8
REMARK    3  A    between atoms: C_14  and  C_15
REMARK    4  A    between atoms: CA_16  and  N_17
REMARK    5  A    between atoms: CA_16  and  C_18
REMARK    6  A    between atoms: C_19  and  C_23
REMARK    7  A    between atoms: C_23  and  C_24
REMARK    8  A    between atoms: C_24  and  C_25
REMARK                            x       y       z     vdW  Elec       q    Type
REMARK                         _______ _______ _______ _____ _____    ______ ____
ROOT
ATOM      1  C   UNL     1      17.839  39.922  47.055  0.00  0.00    +0.000 C 
ATOM      2  CA  UNL     1      16.985  39.709  46.031  0.00  0.00    +0.000 C 
ENDROOT
BRANCH   1   8
ATOM      3  C   UNL     1      21.511  41.932  47.762  0.00  0.00    +0.000 A 
ATOM      4  C   UNL     1      20.327  42.665  47.736  0.00  0.00    +0.000 A 
ATOM      5  C   UNL     1      21.521  40.597  47.341  0.00  0.00    +0.000 A 
ATOM      6  C   UNL     1      19.127  42.017  47.439  0.00  0.00    +0.000 A 
ATOM      7  C   UNL     1      20.320  39.950  47.050  0.00  0.00    +0.000 A 
ATOM      8  C   UNL     1      19.111  40.650  47.130  0.00  0.00    +0.000 A 
BRANCH   3   9
ATOM      9  O   UNL     1      22.636  42.553  48.263  0.00  0.00    +0.000 OA
BRANCH   9  12
ATOM     10 BR   UNL     1      24.694  43.066  50.506  0.00  0.00    +0.000 Br
ATOM     11  C   UNL     1      24.922  42.155  48.859  0.00  0.00    +0.000 A 
ATOM     12  C   UNL     1      23.861  41.975  47.965  0.00  0.00    +0.000 A 
ATOM     13  C   UNL     1      26.194  41.659  48.550  0.00  0.00    +0.000 A 
ATOM     14  C   UNL     1      24.072  41.209  46.807  0.00  0.00    +0.000 A 
ATOM     15  C   UNL     1      26.408  40.968  47.356  0.00  0.00    +0.000 A 
ATOM     16  C   UNL     1      25.344  40.731  46.490  0.00  0.00    +0.000 A 
ENDBRANCH   9  12
ENDBRANCH   3   9
ENDBRANCH   1   8
BRANCH   2  17
ATOM     17  N   UNL     1      17.062  40.260  44.756  0.00  0.00    +0.000 N 
ATOM     18  C   UNL     1      16.916  41.600  44.433  0.00  0.00    +0.000 C 
ATOM     19  O   UNL     1      16.520  42.478  45.188  0.00  0.00    +0.000 OA
ATOM     20  H   UNL     1      17.236  39.638  44.012  0.00  0.00    +0.000 HD
BRANCH  18  21
ATOM     21  C   UNL     1      17.146  41.891  42.963  0.00  0.00    +0.000 C 
BRANCH  21  22
ATOM     22  C   UNL     1      18.501  42.572  42.780  0.00  0.00    +0.000 C 
BRANCH  22  23
ATOM     23  C   UNL     1      19.650  41.687  43.192  0.00  0.00    +0.000 A 
ATOM     24  C   UNL     1      19.586  40.304  42.959  0.00  0.00    +0.000 A 
ATOM     25  C   UNL     1      20.794  42.229  43.795  0.00  0.00    +0.000 A 
ATOM     26  C   UNL     1      20.656  39.480  43.306  0.00  0.00    +0.000 A 
ATOM     27  C   UNL     1      21.864  41.403  44.140  0.00  0.00    +0.000 A 
ATOM     28  C   UNL     1      21.786  40.038  43.888  0.00  0.00    +0.000 A 
ATOM     29  F   UNL     1      22.819  39.248  44.210  0.00  0.00    +0.000 F 
ENDBRANCH  22  23
ENDBRANCH  21  22
ENDBRANCH  18  21
ENDBRANCH   2  17
BRANCH   2  30
ATOM     30  C   UNL     1      15.894  38.716  46.382  0.00  0.00    +0.000 C 
ATOM     31  O   UNL     1      15.749  37.633  45.829  0.00  0.00    +0.000 OA
ATOM     32  OXT UNL     1      15.054  39.095  47.367  0.00  0.00    +0.000 OA
ENDBRANCH   2  30
TORSDOF 8
ENDMDL
MODEL 6
REMARK VINA RESULT:      -6.6      1.558      2.186
REMARK  Name = 322536
REMARK  8 active torsions:
REMARK  status: ('A' for Active; 'I' for Inactive)
REMARK    1  A    between atoms: C_3  and  O_5
REMARK    2  A    between atoms: O_5  and  C_8
REMARK    3  A    between atoms: C_14  and  C_15
REMARK    4  A    between atoms: CA_16  and  N_17
REMARK    5  A    between atoms: CA_16  and  C_18
REMARK    6  A    between atoms: C_19  and  C_23
REMARK    7  A    between atoms: C_23  and  C_24
REMARK    8  A    between atoms: C_24  and  C_25
REMARK                            x       y       z     vdW  Elec       q    Type
REMARK                         _______ _______ _______ _____ _____    ______ ____
ROOT
ATOM      1  C   UNL     1      22.461  42.311  48.416  0.00  0.00    +0.000 C 
ATOM      2  CA  UNL     1      23.784  42.080  48.548  0.00  0.00    +0.000 C 
ENDROOT
BRANCH   1   8
ATOM      3  C   UNL     1      19.385  41.591  45.580  0.00  0.00    +0.000 A 
ATOM      4  C   UNL     1      19.863  40.534  46.348  0.00  0.00    +0.000 A 
ATOM      5  C   UNL     1      20.055  42.820  45.578  0.00  0.00    +0.000 A 
ATOM      6  C   UNL     1      20.919  40.754  47.235  0.00  0.00    +0.000 A 
ATOM      7  C   UNL     1      21.107  43.040  46.469  0.00  0.00    +0.000 A 
ATOM      8  C   UNL     1      21.523  42.016  47.326  0.00  0.00    +0.000 A 
BRANCH   3   9
ATOM      9  O   UNL     1      18.214  41.394  44.879  0.00  0.00    +0.000 OA
BRANCH   9  12
ATOM     10 BR   UNL     1      16.577  42.327  47.325  0.00  0.00    +0.000 Br
ATOM     11  C   UNL     1      16.587  40.637  46.467  0.00  0.00    +0.000 A 
ATOM     12  C   UNL     1      17.368  40.393  45.332  0.00  0.00    +0.000 A 
ATOM     13  C   UNL     1      15.787  39.620  47.001  0.00  0.00    +0.000 A 
ATOM     14  C   UNL     1      17.258  39.149  44.687  0.00  0.00    +0.000 A 
ATOM     15  C   UNL     1      15.749  38.363  46.397  0.00  0.00    +0.000 A 
ATOM     16  C   UNL     1      16.474  38.131  45.231  0.00  0.00    +0.000 A 
ENDBRANCH   9  12
ENDBRANCH   3   9
ENDBRANCH   1   8
BRANCH   2  17
ATOM     17  N   UNL     1      24.595  41.363  47.675  0.00  0.00    +0.000 N 
ATOM     18  C   UNL     1      24.492  40.010  47.388  0.00  0.00    +0.000 C 
ATOM     19  O   UNL     1      23.795  39.203  47.987  0.00  0.00    +0.000 OA
ATOM     20  H   UNL     1      25.310  41.862  47.218  0.00  0.00    +0.000 HD
BRANCH  18  21
ATOM     21  C   UNL     1      25.469  39.548  46.323  0.00  0.00    +0.000 C 
BRANCH  21  22
ATOM     22  C   UNL     1      25.219  40.318  45.028  0.00  0.00    +0.000 C 
BRANCH  22  23
ATOM     23  C   UNL     1      23.841  40.068  44.467  0.00  0.00    +0.000 A 
ATOM     24  C   UNL     1      23.246  38.805  44.612  0.00  0.00    +0.000 A 
ATOM     25  C   UNL     1      23.138  41.087  43.810  0.00  0.00    +0.000 A 
ATOM     26  C   UNL     1      21.960  38.571  44.125  0.00  0.00    +0.000 A 
ATOM     27  C   UNL     1      21.851  40.852  43.325  0.00  0.00    +0.000 A 
ATOM     28  C   UNL     1      21.273  39.597  43.491  0.00  0.00    +0.000 A 
ATOM     29  F   UNL     1      20.034  39.376  43.035  0.00  0.00    +0.000 F 
ENDBRANCH  22  23
ENDBRANCH  21  22
ENDBRANCH  18  21
ENDBRANCH   2  17
BRANCH   2  30
ATOM     30  C   UNL     1      24.371  42.753  49.775  0.00  0.00    +0.000 C 
ATOM     31  O   UNL     1      23.714  43.096  50.748  0.00  0.00    +0.000 OA
ATOM     32  OXT UNL     1      25.703  42.968  49.742  0.00  0.00    +0.000 OA
ENDBRANCH   2  30
TORSDOF 8
ENDMDL
MODEL 7
REMARK VINA RESULT:      -6.5      2.839      7.069
REMARK  Name = 322536
REMARK  8 active torsions:
REMARK  status: ('A' for Active; 'I' for Inactive)
REMARK    1  A    between atoms: C_3  and  O_5
REMARK    2  A    between atoms: O_5  and  C_8
REMARK    3  A    between atoms: C_14  and  C_15
REMARK    4  A    between atoms: CA_16  and  N_17
REMARK    5  A    between atoms: CA_16  and  C_18
REMARK    6  A    between atoms: C_19  and  C_23
REMARK    7  A    between atoms: C_23  and  C_24
REMARK    8  A    between atoms: C_24  and  C_25
REMARK                            x       y       z     vdW  Elec       q    Type
REMARK                         _______ _______ _______ _____ _____    ______ ____
ROOT
ATOM      1  C   UNL     1      17.996  39.985  47.327  0.00  0.00    +0.000 C 
ATOM      2  CA  UNL     1      17.011  40.133  46.415  0.00  0.00    +0.000 C 
ENDROOT
BRANCH   1   8
ATOM      3  C   UNL     1      21.811  41.838  47.136  0.00  0.00    +0.000 A 
ATOM      4  C   UNL     1      21.719  40.455  47.009  0.00  0.00    +0.000 A 
ATOM      5  C   UNL     1      20.698  42.583  47.544  0.00  0.00    +0.000 A 
ATOM      6  C   UNL     1      20.473  39.837  47.137  0.00  0.00    +0.000 A 
ATOM      7  C   UNL     1      19.453  41.965  47.666  0.00  0.00    +0.000 A 
ATOM      8  C   UNL     1      19.329  40.591  47.430  0.00  0.00    +0.000 A 
BRANCH   3   9
ATOM      9  O   UNL     1      23.008  42.433  46.796  0.00  0.00    +0.000 OA
BRANCH   9  12
ATOM     10 BR   UNL     1      25.309  40.628  45.805  0.00  0.00    +0.000 Br
ATOM     11  C   UNL     1      25.135  41.550  47.453  0.00  0.00    +0.000 A 
ATOM     12  C   UNL     1      24.033  42.366  47.727  0.00  0.00    +0.000 A 
ATOM     13  C   UNL     1      26.148  41.392  48.407  0.00  0.00    +0.000 A 
ATOM     14  C   UNL     1      24.011  43.096  48.927  0.00  0.00    +0.000 A 
ATOM     15  C   UNL     1      26.073  42.061  49.630  0.00  0.00    +0.000 A 
ATOM     16  C   UNL     1      25.011  42.924  49.885  0.00  0.00    +0.000 A 
ENDBRANCH   9  12
ENDBRANCH   3   9
ENDBRANCH   1   8
BRANCH   2  17
ATOM     17  N   UNL     1      16.985  41.035  45.358  0.00  0.00    +0.000 N 
ATOM     18  C   UNL     1      16.815  42.407  45.456  0.00  0.00    +0.000 C 
ATOM     19  O   UNL     1      16.482  43.015  46.465  0.00  0.00    +0.000 OA
ATOM     20  H   UNL     1      17.098  40.664  44.452  0.00  0.00    +0.000 HD
BRANCH  18  21
ATOM     21  C   UNL     1      16.926  43.122  44.124  0.00  0.00    +0.000 C 
BRANCH  21  22
ATOM     22  C   UNL     1      17.267  42.115  43.027  0.00  0.00    +0.000 C 
BRANCH  22  23
ATOM     23  C   UNL     1      18.638  41.514  43.205  0.00  0.00    +0.000 A 
ATOM     24  C   UNL     1      19.752  42.351  43.376  0.00  0.00    +0.000 A 
ATOM     25  C   UNL     1      18.817  40.123  43.215  0.00  0.00    +0.000 A 
ATOM     26  C   UNL     1      21.020  41.805  43.573  0.00  0.00    +0.000 A 
ATOM     27  C   UNL     1      20.086  39.579  43.413  0.00  0.00    +0.000 A 
ATOM     28  C   UNL     1      21.175  40.426  43.594  0.00  0.00    +0.000 A 
ATOM     29  F   UNL     1      22.391  39.903  43.796  0.00  0.00    +0.000 F 
ENDBRANCH  22  23
ENDBRANCH  21  22
ENDBRANCH  18  21
ENDBRANCH   2  17
BRANCH   2  30
ATOM     30  C   UNL     1      15.884  39.137  46.612  0.00  0.00    +0.000 C 
ATOM     31  O   UNL     1      14.965  39.290  47.406  0.00  0.00    +0.000 OA
ATOM     32  OXT UNL     1      15.944  38.028  45.846  0.00  0.00    +0.000 OA
ENDBRANCH   2  30
TORSDOF 8
ENDMDL
MODEL 8
REMARK VINA RESULT:      -6.5      2.084      4.109
REMARK  Name = 322536
REMARK  8 active torsions:
REMARK  status: ('A' for Active; 'I' for Inactive)
REMARK    1  A    between atoms: C_3  and  O_5
REMARK    2  A    between atoms: O_5  and  C_8
REMARK    3  A    between atoms: C_14  and  C_15
REMARK    4  A    between atoms: CA_16  and  N_17
REMARK    5  A    between atoms: CA_16  and  C_18
REMARK    6  A    between atoms: C_19  and  C_23
REMARK    7  A    between atoms: C_23  and  C_24
REMARK    8  A    between atoms: C_24  and  C_25
REMARK                            x       y       z     vdW  Elec       q    Type
REMARK                         _______ _______ _______ _____ _____    ______ ____
ROOT
ATOM      1  C   UNL     1      24.567  41.065  46.872  0.00  0.00    +0.000 C 
ATOM      2  CA  UNL     1      24.256  41.765  47.984  0.00  0.00    +0.000 C 
ENDROOT
BRANCH   1   8
ATOM      3  C   UNL     1      21.828  39.519  44.020  0.00  0.00    +0.000 A 
ATOM      4  C   UNL     1      21.710  39.137  45.354  0.00  0.00    +0.000 A 
ATOM      5  C   UNL     1      22.960  40.219  43.586  0.00  0.00    +0.000 A 
ATOM      6  C   UNL     1      22.648  39.593  46.282  0.00  0.00    +0.000 A 
ATOM      7  C   UNL     1      23.894  40.677  44.516  0.00  0.00    +0.000 A 
ATOM      8  C   UNL     1      23.725  40.394  45.875  0.00  0.00    +0.000 A 
BRANCH   3   9
ATOM      9  O   UNL     1      20.775  39.231  43.177  0.00  0.00    +0.000 OA
BRANCH   9  12
ATOM     10 BR   UNL     1      18.226  37.704  44.017  0.00  0.00    +0.000 Br
ATOM     11  C   UNL     1      18.427  39.530  43.548  0.00  0.00    +0.000 A 
ATOM     12  C   UNL     1      19.676  40.074  43.228  0.00  0.00    +0.000 A 
ATOM     13  C   UNL     1      17.283  40.336  43.524  0.00  0.00    +0.000 A 
ATOM     14  C   UNL     1      19.772  41.454  42.983  0.00  0.00    +0.000 A 
ATOM     15  C   UNL     1      17.381  41.689  43.199  0.00  0.00    +0.000 A 
ATOM     16  C   UNL     1      18.628  42.252  42.941  0.00  0.00    +0.000 A 
ENDBRANCH   9  12
ENDBRANCH   3   9
ENDBRANCH   1   8
BRANCH   2  17
ATOM     17  N   UNL     1      22.983  42.132  48.407  0.00  0.00    +0.000 N 
ATOM     18  C   UNL     1      21.943  42.563  47.598  0.00  0.00    +0.000 C 
ATOM     19  O   UNL     1      22.036  42.861  46.415  0.00  0.00    +0.000 OA
ATOM     20  H   UNL     1      22.803  42.080  49.375  0.00  0.00    +0.000 HD
BRANCH  18  21
ATOM     21  C   UNL     1      20.652  42.799  48.356  0.00  0.00    +0.000 C 
BRANCH  21  22
ATOM     22  C   UNL     1      19.556  43.229  47.383  0.00  0.00    +0.000 C 
BRANCH  22  23
ATOM     23  C   UNL     1      18.529  42.147  47.159  0.00  0.00    +0.000 A 
ATOM     24  C   UNL     1      18.886  40.799  47.324  0.00  0.00    +0.000 A 
ATOM     25  C   UNL     1      17.213  42.469  46.799  0.00  0.00    +0.000 A 
ATOM     26  C   UNL     1      17.937  39.793  47.150  0.00  0.00    +0.000 A 
ATOM     27  C   UNL     1      16.264  41.461  46.627  0.00  0.00    +0.000 A 
ATOM     28  C   UNL     1      16.635  40.133  46.809  0.00  0.00    +0.000 A 
ATOM     29  F   UNL     1      15.721  39.166  46.655  0.00  0.00    +0.000 F 
ENDBRANCH  22  23
ENDBRANCH  21  22
ENDBRANCH  18  21
ENDBRANCH   2  17
BRANCH   2  30
ATOM     30  C   UNL     1      25.476  42.098  48.821  0.00  0.00    +0.000 C 
ATOM     31  O   UNL     1      25.470  42.882  49.760  0.00  0.00    +0.000 OA
ATOM     32  OXT UNL     1      26.616  41.468  48.467  0.00  0.00    +0.000 OA
ENDBRANCH   2  30
TORSDOF 8
ENDMDL
MODEL 9
REMARK VINA RESULT:      -6.5      1.983      4.143
REMARK  Name = 322536
REMARK  8 active torsions:
REMARK  status: ('A' for Active; 'I' for Inactive)
REMARK    1  A    between atoms: C_3  and  O_5
REMARK    2  A    between atoms: O_5  and  C_8
REMARK    3  A    between atoms: C_14  and  C_15
REMARK    4  A    between atoms: CA_16  and  N_17
REMARK    5  A    between atoms: CA_16  and  C_18
REMARK    6  A    between atoms: C_19  and  C_23
REMARK    7  A    between atoms: C_23  and  C_24
REMARK    8  A    between atoms: C_24  and  C_25
REMARK                            x       y       z     vdW  Elec       q    Type
REMARK                         _______ _______ _______ _____ _____    ______ ____
ROOT
ATOM      1  C   UNL     1      24.096  40.680  45.422  0.00  0.00    +0.000 C 
ATOM      2  CA  UNL     1      24.170  41.458  46.522  0.00  0.00    +0.000 C 
ENDROOT
BRANCH   1   8
ATOM      3  C   UNL     1      20.534  39.506  43.433  0.00  0.00    +0.000 A 
ATOM      4  C   UNL     1      21.434  38.529  43.850  0.00  0.00    +0.000 A 
ATOM      5  C   UNL     1      20.897  40.858  43.464  0.00  0.00    +0.000 A 
ATOM      6  C   UNL     1      22.636  38.916  44.446  0.00  0.00    +0.000 A 
ATOM      7  C   UNL     1      22.097  41.242  44.064  0.00  0.00    +0.000 A 
ATOM      8  C   UNL     1      22.959  40.273  44.589  0.00  0.00    +0.000 A 
BRANCH   3   9
ATOM      9  O   UNL     1      19.276  39.093  43.047  0.00  0.00    +0.000 OA
BRANCH   9  12
ATOM     10 BR   UNL     1      17.108  41.186  42.375  0.00  0.00    +0.000 Br
ATOM     11  C   UNL     1      17.243  40.045  43.883  0.00  0.00    +0.000 A 
ATOM     12  C   UNL     1      18.281  39.116  44.012  0.00  0.00    +0.000 A 
ATOM     13  C   UNL     1      16.268  40.154  44.883  0.00  0.00    +0.000 A 
ATOM     14  C   UNL     1      18.270  38.235  45.106  0.00  0.00    +0.000 A 
ATOM     15  C   UNL     1      16.316  39.325  46.005  0.00  0.00    +0.000 A 
ATOM     16  C   UNL     1      17.309  38.356  46.111  0.00  0.00    +0.000 A 
ENDBRANCH   9  12
ENDBRANCH   3   9
ENDBRANCH   1   8
BRANCH   2  17
ATOM     17  N   UNL     1      23.136  42.194  47.091  0.00  0.00    +0.000 N 
ATOM     18  C   UNL     1      21.967  41.680  47.633  0.00  0.00    +0.000 C 
ATOM     19  O   UNL     1      21.582  40.523  47.534  0.00  0.00    +0.000 OA
ATOM     20  H   UNL     1      23.243  43.173  47.111  0.00  0.00    +0.000 HD
BRANCH  18  21
ATOM     21  C   UNL     1      21.080  42.740  48.258  0.00  0.00    +0.000 C 
BRANCH  21  22
ATOM     22  C   UNL     1      19.651  42.214  48.367  0.00  0.00    +0.000 C 
BRANCH  22  23
ATOM     23  C   UNL     1      18.768  42.711  47.249  0.00  0.00    +0.000 A 
ATOM     24  C   UNL     1      19.287  42.837  45.951  0.00  0.00    +0.000 A 
ATOM     25  C   UNL     1      17.425  43.038  47.487  0.00  0.00    +0.000 A 
ATOM     26  C   UNL     1      18.472  43.266  44.905  0.00  0.00    +0.000 A 
ATOM     27  C   UNL     1      16.611  43.465  46.437  0.00  0.00    +0.000 A 
ATOM     28  C   UNL     1      17.141  43.571  45.156  0.00  0.00    +0.000 A 
ATOM     29  F   UNL     1      16.355  43.969  44.148  0.00  0.00    +0.000 F 
ENDBRANCH  22  23
ENDBRANCH  21  22
ENDBRANCH  18  21
ENDBRANCH   2  17
BRANCH   2  30
ATOM     30  C   UNL     1      25.543  41.427  47.165  0.00  0.00    +0.000 C 
ATOM     31  O   UNL     1      26.414  40.616  46.881  0.00  0.00    +0.000 OA
ATOM     32  OXT UNL     1      25.770  42.367  48.106  0.00  0.00    +0.000 OA
ENDBRANCH   2  30
TORSDOF 8
ENDMDL
