MODEL 1
REMARK VINA RESULT:      -6.6      0.000      0.000
REMARK  Name = 323273
REMARK  9 active torsions:
REMARK  status: ('A' for Active; 'I' for Inactive)
REMARK    1  A    between atoms: C_3  and  O_5
REMARK    2  A    between atoms: O_5  and  C_8
REMARK    3  A    between atoms: C_14  and  C_15
REMARK    4  A    between atoms: C_16  and  N_17
REMARK    5  A    between atoms: C_16  and  C_18
REMARK    6  A    between atoms: C_19  and  C_23
REMARK    7  A    between atoms: N_21  and  CA_24
REMARK    8  A    between atoms: CA_24  and  C_27
REMARK    9  A    between atoms: C_27  and  O_30
REMARK                            x       y       z     vdW  Elec       q    Type
REMARK                         _______ _______ _______ _____ _____    ______ ____
ROOT
ATOM      1  C   UNK A   1      20.142  42.292  43.487  0.00  0.00    +0.000 C 
ATOM      2  C   UNK A   1      18.900  41.814  43.282  0.00  0.00    +0.000 C 
ENDROOT
BRANCH   1   8
ATOM      3  C   UNK A   1      22.426  41.259  46.927  0.00  0.00    +0.000 A 
ATOM      4  C   UNK A   1      21.690  42.444  46.923  0.00  0.00    +0.000 A 
ATOM      5  C   UNK A   1      22.612  40.557  45.732  0.00  0.00    +0.000 A 
ATOM      6  C   UNK A   1      21.017  42.843  45.760  0.00  0.00    +0.000 A 
ATOM      7  C   UNK A   1      21.923  40.945  44.577  0.00  0.00    +0.000 A 
ATOM      8  C   UNK A   1      21.084  42.066  44.596  0.00  0.00    +0.000 A 
BRANCH   3   9
ATOM      9  O   UNK A   1      22.927  40.819  48.134  0.00  0.00    +0.000 OA
BRANCH   9  12
ATOM     10 BR   UNK A   1      25.688  40.639  46.744  0.00  0.00    +0.000 Br
ATOM     11  C   UNK A   1      25.188  41.611  48.295  0.00  0.00    +0.000 A 
ATOM     12  C   UNK A   1      23.871  41.609  48.774  0.00  0.00    +0.000 A 
ATOM     13  C   UNK A   1      26.181  42.345  48.958  0.00  0.00    +0.000 A 
ATOM     14  C   UNK A   1      23.550  42.431  49.866  0.00  0.00    +0.000 A 
ATOM     15  C   UNK A   1      25.861  43.097  50.089  0.00  0.00    +0.000 A 
ATOM     16  C   UNK A   1      24.543  43.152  50.533  0.00  0.00    +0.000 A 
ENDBRANCH   9  12
ENDBRANCH   3   9
ENDBRANCH   1   8
BRANCH   2  17
ATOM     17  N   UNK A   1      18.263  40.860  44.061  0.00  0.00    +0.000 N 
ATOM     18  C   UNK A   0      18.595  39.523  43.973  0.00  0.00    +0.000 C 
ATOM     19  O   UNK A   0      19.371  39.059  43.136  0.00  0.00    +0.000 OA
ATOM     20  H   UNK A   1      17.560  41.142  44.690  0.00  0.00    +0.000 HD
BRANCH  18  21
ATOM     21  C   UNK A   0      17.871  38.578  44.863  0.00  0.00    +0.000 A 
ATOM     22  C   UNK A   0      17.162  39.122  45.944  0.00  0.00    +0.000 A 
ATOM     23  C   UNK A   0      17.797  37.205  44.603  0.00  0.00    +0.000 A 
ATOM     24  C   UNK A   0      16.367  38.309  46.747  0.00  0.00    +0.000 A 
ATOM     25  C   UNK A   0      16.990  36.394  45.411  0.00  0.00    +0.000 A 
ATOM     26  C   UNK A   0      16.272  36.946  46.474  0.00  0.00    +0.000 A 
ENDBRANCH  18  21
ENDBRANCH   2  17
BRANCH   2  27
ATOM     27  C   UNK A   1      18.152  42.405  42.102  0.00  0.00    +0.000 C 
ATOM     28  O   UNK A   1      18.327  43.554  41.713  0.00  0.00    +0.000 OA
ATOM     29  N   GLY A   2      17.288  41.526  41.486  0.00  0.00    +0.000 N 
ATOM     30  H   GLY A   2      17.181  40.619  41.855  0.00  0.00    +0.000 HD
BRANCH  29  31
ATOM     31  CA  GLY A   2      16.528  41.906  40.301  0.00  0.00    +0.000 C 
BRANCH  31  32
ATOM     32  C   GLY A   2      15.147  41.251  40.241  0.00  0.00    +0.000 C 
BRANCH  32  33
ATOM     33  O   GLY A   2      14.838  40.881  38.898  0.00  0.00    +0.000 OA
ATOM     34  H   GLY A   2      13.997  40.398  38.880  0.00  0.00    +0.000 HD
ENDBRANCH  32  33
ENDBRANCH  31  32
ENDBRANCH  29  31
ENDBRANCH   2  27
TORSDOF 9
ENDMDL
MODEL 2
REMARK VINA RESULT:      -5.7      3.231      8.252
REMARK  Name = 323273
REMARK  9 active torsions:
REMARK  status: ('A' for Active; 'I' for Inactive)
REMARK    1  A    between atoms: C_3  and  O_5
REMARK    2  A    between atoms: O_5  and  C_8
REMARK    3  A    between atoms: C_14  and  C_15
REMARK    4  A    between atoms: C_16  and  N_17
REMARK    5  A    between atoms: C_16  and  C_18
REMARK    6  A    between atoms: C_19  and  C_23
REMARK    7  A    between atoms: N_21  and  CA_24
REMARK    8  A    between atoms: CA_24  and  C_27
REMARK    9  A    between atoms: C_27  and  O_30
REMARK                            x       y       z     vdW  Elec       q    Type
REMARK                         _______ _______ _______ _____ _____    ______ ____
ROOT
ATOM      1  C   UNK A   1      23.605  40.653  45.499  0.00  0.00    +0.000 C 
ATOM      2  C   UNK A   1      23.545  41.559  46.495  0.00  0.00    +0.000 C 
ENDROOT
BRANCH   1   8
ATOM      3  C   UNK A   1      20.167  39.277  43.401  0.00  0.00    +0.000 A 
ATOM      4  C   UNK A   1      20.992  38.355  44.046  0.00  0.00    +0.000 A 
ATOM      5  C   UNK A   1      20.603  40.595  43.233  0.00  0.00    +0.000 A 
ATOM      6  C   UNK A   1      22.179  38.787  44.653  0.00  0.00    +0.000 A 
ATOM      7  C   UNK A   1      21.778  41.029  43.857  0.00  0.00    +0.000 A 
ATOM      8  C   UNK A   1      22.552  40.136  44.610  0.00  0.00    +0.000 A 
BRANCH   3   9
ATOM      9  O   UNK A   1      18.931  38.842  42.970  0.00  0.00    +0.000 OA
BRANCH   9  12
ATOM     10 BR   UNK A   1      17.086  41.221  43.690  0.00  0.00    +0.000 Br
ATOM     11  C   UNK A   1      17.107  39.462  44.402  0.00  0.00    +0.000 A 
ATOM     12  C   UNK A   1      17.996  38.487  43.931  0.00  0.00    +0.000 A 
ATOM     13  C   UNK A   1      16.194  39.157  45.420  0.00  0.00    +0.000 A 
ATOM     14  C   UNK A   1      17.888  37.180  44.430  0.00  0.00    +0.000 A 
ATOM     15  C   UNK A   1      16.151  37.870  45.961  0.00  0.00    +0.000 A 
ATOM     16  C   UNK A   1      16.987  36.879  45.455  0.00  0.00    +0.000 A 
ENDBRANCH   9  12
ENDBRANCH   3   9
ENDBRANCH   1   8
BRANCH   2  17
ATOM     17  N   UNK A   1      22.434  42.321  46.826  0.00  0.00    +0.000 N 
ATOM     18  C   UNK A   0      21.255  41.731  47.235  0.00  0.00    +0.000 C 
ATOM     19  O   UNK A   0      21.052  40.517  47.223  0.00  0.00    +0.000 OA
ATOM     20  H   UNK A   1      22.488  43.302  46.769  0.00  0.00    +0.000 HD
BRANCH  18  21
ATOM     21  C   UNK A   0      20.126  42.632  47.588  0.00  0.00    +0.000 A 
ATOM     22  C   UNK A   0      19.453  43.267  46.535  0.00  0.00    +0.000 A 
ATOM     23  C   UNK A   0      19.665  42.783  48.901  0.00  0.00    +0.000 A 
ATOM     24  C   UNK A   0      18.315  44.030  46.784  0.00  0.00    +0.000 A 
ATOM     25  C   UNK A   0      18.517  43.546  49.143  0.00  0.00    +0.000 A 
ATOM     26  C   UNK A   0      17.841  44.161  48.087  0.00  0.00    +0.000 A 
ENDBRANCH  18  21
ENDBRANCH   2  17
BRANCH   2  27
ATOM     27  C   UNK A   1      24.808  41.718  47.319  0.00  0.00    +0.000 C 
ATOM     28  O   UNK A   1      25.907  41.345  46.927  0.00  0.00    +0.000 OA
ATOM     29  N   GLY A   2      24.615  42.351  48.528  0.00  0.00    +0.000 N 
ATOM     30  H   GLY A   2      23.703  42.615  48.792  0.00  0.00    +0.000 HD
BRANCH  29  31
ATOM     31  CA  GLY A   2      25.727  42.640  49.425  0.00  0.00    +0.000 C 
BRANCH  31  32
ATOM     32  C   GLY A   2      25.274  43.137  50.799  0.00  0.00    +0.000 C 
BRANCH  32  33
ATOM     33  O   GLY A   2      23.922  42.750  51.039  0.00  0.00    +0.000 OA
ATOM     34  H   GLY A   2      23.669  42.997  51.942  0.00  0.00    +0.000 HD
ENDBRANCH  32  33
ENDBRANCH  31  32
ENDBRANCH  29  31
ENDBRANCH   2  27
TORSDOF 9
ENDMDL
MODEL 3
REMARK VINA RESULT:      -5.3      2.660      4.429
REMARK  Name = 323273
REMARK  9 active torsions:
REMARK  status: ('A' for Active; 'I' for Inactive)
REMARK    1  A    between atoms: C_3  and  O_5
REMARK    2  A    between atoms: O_5  and  C_8
REMARK    3  A    between atoms: C_14  and  C_15
REMARK    4  A    between atoms: C_16  and  N_17
REMARK    5  A    between atoms: C_16  and  C_18
REMARK    6  A    between atoms: C_19  and  C_23
REMARK    7  A    between atoms: N_21  and  CA_24
REMARK    8  A    between atoms: CA_24  and  C_27
REMARK    9  A    between atoms: C_27  and  O_30
REMARK                            x       y       z     vdW  Elec       q    Type
REMARK                         _______ _______ _______ _____ _____    ______ ____
ROOT
ATOM      1  C   UNK A   1      20.635  39.104  44.316  0.00  0.00    +0.000 C 
ATOM      2  C   UNK A   1      19.391  39.582  44.513  0.00  0.00    +0.000 C 
ENDROOT
BRANCH   1   8
ATOM      3  C   UNK A   1      24.398  40.574  45.654  0.00  0.00    +0.000 A 
ATOM      4  C   UNK A   1      23.266  41.380  45.771  0.00  0.00    +0.000 A 
ATOM      5  C   UNK A   1      24.341  39.410  44.880  0.00  0.00    +0.000 A 
ATOM      6  C   UNK A   1      22.043  40.946  45.242  0.00  0.00    +0.000 A 
ATOM      7  C   UNK A   1      23.115  38.968  44.370  0.00  0.00    +0.000 A 
ATOM      8  C   UNK A   1      21.948  39.712  44.587  0.00  0.00    +0.000 A 
BRANCH   3   9
ATOM      9  O   UNK A   1      25.534  40.959  46.336  0.00  0.00    +0.000 OA
BRANCH   9  12
ATOM     10 BR   UNK A   1      23.658  39.366  48.214  0.00  0.00    +0.000 Br
ATOM     11  C   UNK A   1      24.520  41.030  48.511  0.00  0.00    +0.000 A 
ATOM     12  C   UNK A   1      25.374  41.598  47.557  0.00  0.00    +0.000 A 
ATOM     13  C   UNK A   1      24.283  41.683  49.728  0.00  0.00    +0.000 A 
ATOM     14  C   UNK A   1      26.058  42.779  47.883  0.00  0.00    +0.000 A 
ATOM     15  C   UNK A   1      24.912  42.897  50.007  0.00  0.00    +0.000 A 
ATOM     16  C   UNK A   1      25.811  43.437  49.091  0.00  0.00    +0.000 A 
ENDBRANCH   9  12
ENDBRANCH   3   9
ENDBRANCH   1   8
BRANCH   2  17
ATOM     17  N   UNK A   1      19.075  40.768  45.159  0.00  0.00    +0.000 N 
ATOM     18  C   UNK A   0      18.292  40.777  46.297  0.00  0.00    +0.000 C 
ATOM     19  O   UNK A   0      17.723  39.785  46.751  0.00  0.00    +0.000 OA
ATOM     20  H   UNK A   1      19.414  41.619  44.800  0.00  0.00    +0.000 HD
BRANCH  18  21
ATOM     21  C   UNK A   0      18.023  42.096  46.930  0.00  0.00    +0.000 A 
ATOM     22  C   UNK A   0      18.999  42.608  47.797  0.00  0.00    +0.000 A 
ATOM     23  C   UNK A   0      16.897  42.865  46.619  0.00  0.00    +0.000 A 
ATOM     24  C   UNK A   0      18.868  43.887  48.332  0.00  0.00    +0.000 A 
ATOM     25  C   UNK A   0      16.773  44.153  47.154  0.00  0.00    +0.000 A 
ATOM     26  C   UNK A   0      17.759  44.663  48.002  0.00  0.00    +0.000 A 
ENDBRANCH  18  21
ENDBRANCH   2  17
BRANCH   2  27
ATOM     27  C   UNK A   1      18.263  38.740  43.948  0.00  0.00    +0.000 C 
ATOM     28  O   UNK A   1      17.435  39.182  43.160  0.00  0.00    +0.000 OA
ATOM     29  N   GLY A   2      18.275  37.428  44.369  0.00  0.00    +0.000 N 
ATOM     30  H   GLY A   2      18.960  37.136  45.014  0.00  0.00    +0.000 HD
BRANCH  29  31
ATOM     31  CA  GLY A   2      17.298  36.461  43.883  0.00  0.00    +0.000 C 
BRANCH  31  32
ATOM     32  C   GLY A   2      16.530  35.768  45.010  0.00  0.00    +0.000 C 
BRANCH  32  33
ATOM     33  O   GLY A   2      17.415  35.450  46.082  0.00  0.00    +0.000 OA
ATOM     34  H   GLY A   2      17.381  36.153  46.750  0.00  0.00    +0.000 HD
ENDBRANCH  32  33
ENDBRANCH  31  32
ENDBRANCH  29  31
ENDBRANCH   2  27
TORSDOF 9
ENDMDL
MODEL 4
REMARK VINA RESULT:      -5.1      2.120      3.661
REMARK  Name = 323273
REMARK  9 active torsions:
REMARK  status: ('A' for Active; 'I' for Inactive)
REMARK    1  A    between atoms: C_3  and  O_5
REMARK    2  A    between atoms: O_5  and  C_8
REMARK    3  A    between atoms: C_14  and  C_15
REMARK    4  A    between atoms: C_16  and  N_17
REMARK    5  A    between atoms: C_16  and  C_18
REMARK    6  A    between atoms: C_19  and  C_23
REMARK    7  A    between atoms: N_21  and  CA_24
REMARK    8  A    between atoms: CA_24  and  C_27
REMARK    9  A    between atoms: C_27  and  O_30
REMARK                            x       y       z     vdW  Elec       q    Type
REMARK                         _______ _______ _______ _____ _____    ______ ____
ROOT
ATOM      1  C   UNK A   1      20.722  39.229  44.017  0.00  0.00    +0.000 C 
ATOM      2  C   UNK A   1      19.523  39.709  44.402  0.00  0.00    +0.000 C 
ENDROOT
BRANCH   1   8
ATOM      3  C   UNK A   1      24.347  40.175  46.036  0.00  0.00    +0.000 A 
ATOM      4  C   UNK A   1      23.742  41.136  45.226  0.00  0.00    +0.000 A 
ATOM      5  C   UNK A   1      23.907  38.849  45.982  0.00  0.00    +0.000 A 
ATOM      6  C   UNK A   1      22.605  40.802  44.478  0.00  0.00    +0.000 A 
ATOM      7  C   UNK A   1      22.760  38.521  45.251  0.00  0.00    +0.000 A 
ATOM      8  C   UNK A   1      22.074  39.507  44.529  0.00  0.00    +0.000 A 
BRANCH   3   9
ATOM      9  O   UNK A   1      25.354  40.591  46.883  0.00  0.00    +0.000 OA
BRANCH   9  12
ATOM     10 BR   UNK A   1      27.847  41.472  48.493  0.00  0.00    +0.000 Br
ATOM     11  C   UNK A   1      26.016  41.850  48.818  0.00  0.00    +0.000 A 
ATOM     12  C   UNK A   1      25.007  41.396  47.959  0.00  0.00    +0.000 A 
ATOM     13  C   UNK A   1      25.694  42.609  49.951  0.00  0.00    +0.000 A 
ATOM     14  C   UNK A   1      23.684  41.798  48.202  0.00  0.00    +0.000 A 
ATOM     15  C   UNK A   1      24.365  42.936  50.222  0.00  0.00    +0.000 A 
ATOM     16  C   UNK A   1      23.362  42.543  49.339  0.00  0.00    +0.000 A 
ENDBRANCH   9  12
ENDBRANCH   3   9
ENDBRANCH   1   8
BRANCH   2  17
ATOM     17  N   UNK A   1      19.295  40.521  45.503  0.00  0.00    +0.000 N 
ATOM     18  C   UNK A   0      19.259  41.896  45.384  0.00  0.00    +0.000 C 
ATOM     19  O   UNK A   0      19.540  42.506  44.353  0.00  0.00    +0.000 OA
ATOM     20  H   UNK A   1      19.155  40.109  46.386  0.00  0.00    +0.000 HD
BRANCH  18  21
ATOM     21  C   UNK A   0      18.988  42.682  46.618  0.00  0.00    +0.000 A 
ATOM     22  C   UNK A   0      17.950  43.622  46.570  0.00  0.00    +0.000 A 
ATOM     23  C   UNK A   0      19.658  42.446  47.823  0.00  0.00    +0.000 A 
ATOM     24  C   UNK A   0      17.564  44.308  47.719  0.00  0.00    +0.000 A 
ATOM     25  C   UNK A   0      19.262  43.133  48.977  0.00  0.00    +0.000 A 
ATOM     26  C   UNK A   0      18.214  44.055  48.925  0.00  0.00    +0.000 A 
ENDBRANCH  18  21
ENDBRANCH   2  17
BRANCH   2  27
ATOM     27  C   UNK A   1      18.348  39.329  43.523  0.00  0.00    +0.000 C 
ATOM     28  O   UNK A   1      18.050  38.165  43.279  0.00  0.00    +0.000 OA
ATOM     29  N   GLY A   2      17.624  40.404  43.055  0.00  0.00    +0.000 N 
ATOM     30  H   GLY A   2      17.922  41.317  43.276  0.00  0.00    +0.000 HD
BRANCH  29  31
ATOM     31  CA  GLY A   2      16.427  40.224  42.242  0.00  0.00    +0.000 C 
BRANCH  31  32
ATOM     32  C   GLY A   2      16.156  41.404  41.307  0.00  0.00    +0.000 C 
BRANCH  32  33
ATOM     33  O   GLY A   2      15.093  41.085  40.411  0.00  0.00    +0.000 OA
ATOM     34  H   GLY A   2      14.329  40.764  40.917  0.00  0.00    +0.000 HD
ENDBRANCH  32  33
ENDBRANCH  31  32
ENDBRANCH  29  31
ENDBRANCH   2  27
TORSDOF 9
ENDMDL
MODEL 5
REMARK VINA RESULT:      -4.8      2.357      3.537
REMARK  Name = 323273
REMARK  9 active torsions:
REMARK  status: ('A' for Active; 'I' for Inactive)
REMARK    1  A    between atoms: C_3  and  O_5
REMARK    2  A    between atoms: O_5  and  C_8
REMARK    3  A    between atoms: C_14  and  C_15
REMARK    4  A    between atoms: C_16  and  N_17
REMARK    5  A    between atoms: C_16  and  C_18
REMARK    6  A    between atoms: C_19  and  C_23
REMARK    7  A    between atoms: N_21  and  CA_24
REMARK    8  A    between atoms: CA_24  and  C_27
REMARK    9  A    between atoms: C_27  and  O_30
REMARK                            x       y       z     vdW  Elec       q    Type
REMARK                         _______ _______ _______ _____ _____    ______ ____
ROOT
ATOM      1  C   UNK A   1      19.109  40.146  42.972  0.00  0.00    +0.000 C 
ATOM      2  C   UNK A   1      17.990  40.820  43.297  0.00  0.00    +0.000 C 
ENDROOT
BRANCH   1   8
ATOM      3  C   UNK A   1      22.873  40.460  44.935  0.00  0.00    +0.000 A 
ATOM      4  C   UNK A   1      22.145  41.618  44.657  0.00  0.00    +0.000 A 
ATOM      5  C   UNK A   1      22.491  39.247  44.353  0.00  0.00    +0.000 A 
ATOM      6  C   UNK A   1      20.955  41.533  43.922  0.00  0.00    +0.000 A 
ATOM      7  C   UNK A   1      21.292  39.161  43.636  0.00  0.00    +0.000 A 
ATOM      8  C   UNK A   1      20.492  40.296  43.455  0.00  0.00    +0.000 A 
BRANCH   3   9
ATOM      9  O   UNK A   1      23.940  40.565  45.803  0.00  0.00    +0.000 OA
BRANCH   9  12
ATOM     10 BR   UNK A   1      26.622  41.259  47.184  0.00  0.00    +0.000 Br
ATOM     11  C   UNK A   1      24.850  41.581  47.780  0.00  0.00    +0.000 A 
ATOM     12  C   UNK A   1      23.737  41.230  47.004  0.00  0.00    +0.000 A 
ATOM     13  C   UNK A   1      24.678  42.193  49.029  0.00  0.00    +0.000 A 
ATOM     14  C   UNK A   1      22.458  41.589  47.459  0.00  0.00    +0.000 A 
ATOM     15  C   UNK A   1      23.396  42.474  49.502  0.00  0.00    +0.000 A 
ATOM     16  C   UNK A   1      22.288  42.186  48.710  0.00  0.00    +0.000 A 
ENDBRANCH   9  12
ENDBRANCH   3   9
ENDBRANCH   1   8
BRANCH   2  17
ATOM     17  N   UNK A   1      17.883  41.772  44.300  0.00  0.00    +0.000 N 
ATOM     18  C   UNK A   0      17.856  41.410  45.632  0.00  0.00    +0.000 C 
ATOM     19  O   UNK A   0      17.801  40.246  46.029  0.00  0.00    +0.000 OA
ATOM     20  H   UNK A   1      17.824  42.724  44.057  0.00  0.00    +0.000 HD
BRANCH  18  21
ATOM     21  C   UNK A   0      17.759  42.503  46.636  0.00  0.00    +0.000 A 
ATOM     22  C   UNK A   0      18.832  42.663  47.524  0.00  0.00    +0.000 A 
ATOM     23  C   UNK A   0      16.698  43.416  46.655  0.00  0.00    +0.000 A 
ATOM     24  C   UNK A   0      18.861  43.736  48.410  0.00  0.00    +0.000 A 
ATOM     25  C   UNK A   0      16.736  44.497  47.544  0.00  0.00    +0.000 A 
ATOM     26  C   UNK A   0      17.818  44.660  48.412  0.00  0.00    +0.000 A 
ENDBRANCH  18  21
ENDBRANCH   2  17
BRANCH   2  27
ATOM     27  C   UNK A   1      16.764  40.505  42.461  0.00  0.00    +0.000 C 
ATOM     28  O   UNK A   1      15.977  39.610  42.748  0.00  0.00    +0.000 OA
ATOM     29  N   GLY A   2      16.594  41.336  41.375  0.00  0.00    +0.000 N 
ATOM     30  H   GLY A   2      17.269  42.029  41.190  0.00  0.00    +0.000 HD
BRANCH  29  31
ATOM     31  CA  GLY A   2      15.439  41.215  40.493  0.00  0.00    +0.000 C 
BRANCH  31  32
ATOM     32  C   GLY A   2      15.758  41.566  39.039  0.00  0.00    +0.000 C 
BRANCH  32  33
ATOM     33  O   GLY A   2      17.033  42.200  38.956  0.00  0.00    +0.000 OA
ATOM     34  H   GLY A   2      17.293  42.284  38.025  0.00  0.00    +0.000 HD
ENDBRANCH  32  33
ENDBRANCH  31  32
ENDBRANCH  29  31
ENDBRANCH   2  27
TORSDOF 9
ENDMDL
