MODEL 1
REMARK VINA RESULT:      -7.0      0.000      0.000
REMARK  Name = 323165
REMARK  8 active torsions:
REMARK  status: ('A' for Active; 'I' for Inactive)
REMARK    1  A    between atoms: C_3  and  O_5
REMARK    2  A    between atoms: O_5  and  C_8
REMARK    3  A    between atoms: C_14  and  C_15
REMARK    4  A    between atoms: C_16  and  N_17
REMARK    5  A    between atoms: C_16  and  C_18
REMARK    6  A    between atoms: C_19  and  C_23
REMARK    7  A    between atoms: N_21  and  O_24
REMARK    8  A    between atoms: O_24  and  C_27
REMARK                            x       y       z     vdW  Elec       q    Type
REMARK                         _______ _______ _______ _____ _____    ______ ____
ROOT
ATOM      1  C   UNL     1      20.063  42.269  43.394  0.00  0.00    +0.000 C 
ATOM      2  C   UNL     1      18.823  41.777  43.212  0.00  0.00    +0.000 C 
ENDROOT
BRANCH   1   8
ATOM      3  C   UNL     1      22.369  41.255  46.816  0.00  0.00    +0.000 A 
ATOM      4  C   UNL     1      21.572  42.398  46.846  0.00  0.00    +0.000 A 
ATOM      5  C   UNL     1      22.605  40.604  45.603  0.00  0.00    +0.000 A 
ATOM      6  C   UNL     1      20.884  42.796  45.692  0.00  0.00    +0.000 A 
ATOM      7  C   UNL     1      21.900  40.989  44.458  0.00  0.00    +0.000 A 
ATOM      8  C   UNL     1      20.999  42.059  44.508  0.00  0.00    +0.000 A 
BRANCH   3   9
ATOM      9  O   UNL     1      22.875  40.792  48.015  0.00  0.00    +0.000 OA
BRANCH   9  12
ATOM     10 BR   UNL     1      25.678  40.565  46.722  0.00  0.00    +0.000 Br
ATOM     11  C   UNL     1      25.137  41.568  48.239  0.00  0.00    +0.000 A 
ATOM     12  C   UNL     1      23.804  41.587  48.671  0.00  0.00    +0.000 A 
ATOM     13  C   UNL     1      26.113  42.301  48.925  0.00  0.00    +0.000 A 
ATOM     14  C   UNL     1      23.454  42.428  49.740  0.00  0.00    +0.000 A 
ATOM     15  C   UNL     1      25.762  43.073  50.033  0.00  0.00    +0.000 A 
ATOM     16  C   UNL     1      24.431  43.147  50.432  0.00  0.00    +0.000 A 
ENDBRANCH   9  12
ENDBRANCH   3   9
ENDBRANCH   1   8
BRANCH   2  17
ATOM     17  N   UNL     1      18.214  40.822  44.012  0.00  0.00    +0.000 N 
ATOM     18  C   UNL     1      18.588  39.490  43.955  0.00  0.00    +0.000 C 
ATOM     19  O   UNL     1      19.382  39.036  43.139  0.00  0.00    +0.000 OA
ATOM     20  H   UNL     1      17.502  41.097  44.634  0.00  0.00    +0.000 HD
BRANCH  18  21
ATOM     21  C   UNL     1      17.871  38.551  44.853  0.00  0.00    +0.000 A 
ATOM     22  C   UNL     1      17.165  39.101  45.933  0.00  0.00    +0.000 A 
ATOM     23  C   UNL     1      17.807  37.174  44.609  0.00  0.00    +0.000 A 
ATOM     24  C   UNL     1      16.381  38.289  46.750  0.00  0.00    +0.000 A 
ATOM     25  C   UNL     1      17.014  36.364  45.428  0.00  0.00    +0.000 A 
ATOM     26  C   UNL     1      16.297  36.924  46.490  0.00  0.00    +0.000 A 
ENDBRANCH  18  21
ENDBRANCH   2  17
BRANCH   2  27
ATOM     27  C   UNL     1      18.040  42.368  42.061  0.00  0.00    +0.000 C 
ATOM     28  O   UNL     1      18.224  43.512  41.659  0.00  0.00    +0.000 OA
ATOM     29  N   UNL     1      17.125  41.479  41.528  0.00  0.00    +0.000 N 
ATOM     30  H   UNL     1      16.876  40.635  41.969  0.00  0.00    +0.000 HD
BRANCH  29  31
ATOM     31  O   UNL     1      16.575  41.891  40.285  0.00  0.00    +0.000 OA
ATOM     32  C   UNL     1      15.262  41.350  40.174  0.00  0.00    +0.000 C 
ENDBRANCH  29  31
ENDBRANCH   2  27
TORSDOF 7
ENDMDL
MODEL 2
REMARK VINA RESULT:      -6.3      3.096      7.849
REMARK  Name = 323165
REMARK  8 active torsions:
REMARK  status: ('A' for Active; 'I' for Inactive)
REMARK    1  A    between atoms: C_3  and  O_5
REMARK    2  A    between atoms: O_5  and  C_8
REMARK    3  A    between atoms: C_14  and  C_15
REMARK    4  A    between atoms: C_16  and  N_17
REMARK    5  A    between atoms: C_16  and  C_18
REMARK    6  A    between atoms: C_19  and  C_23
REMARK    7  A    between atoms: N_21  and  O_24
REMARK    8  A    between atoms: O_24  and  C_27
REMARK                            x       y       z     vdW  Elec       q    Type
REMARK                         _______ _______ _______ _____ _____    ______ ____
ROOT
ATOM      1  C   UNL     1      23.629  40.649  45.487  0.00  0.00    +0.000 C 
ATOM      2  C   UNL     1      23.563  41.535  46.498  0.00  0.00    +0.000 C 
ENDROOT
BRANCH   1   8
ATOM      3  C   UNL     1      20.169  39.337  43.399  0.00  0.00    +0.000 A 
ATOM      4  C   UNL     1      20.992  38.395  44.014  0.00  0.00    +0.000 A 
ATOM      5  C   UNL     1      20.611  40.654  43.250  0.00  0.00    +0.000 A 
ATOM      6  C   UNL     1      22.186  38.805  44.622  0.00  0.00    +0.000 A 
ATOM      7  C   UNL     1      21.791  41.067  43.877  0.00  0.00    +0.000 A 
ATOM      8  C   UNL     1      22.562  40.153  44.606  0.00  0.00    +0.000 A 
BRANCH   3   9
ATOM      9  O   UNL     1      18.918  38.924  42.981  0.00  0.00    +0.000 OA
BRANCH   9  12
ATOM     10 BR   UNL     1      17.112  41.311  43.769  0.00  0.00    +0.000 Br
ATOM     11  C   UNL     1      17.131  39.544  44.460  0.00  0.00    +0.000 A 
ATOM     12  C   UNL     1      18.000  38.567  43.958  0.00  0.00    +0.000 A 
ATOM     13  C   UNL     1      16.243  39.234  45.497  0.00  0.00    +0.000 A 
ATOM     14  C   UNL     1      17.893  37.254  44.447  0.00  0.00    +0.000 A 
ATOM     15  C   UNL     1      16.202  37.944  46.025  0.00  0.00    +0.000 A 
ATOM     16  C   UNL     1      17.017  36.951  45.490  0.00  0.00    +0.000 A 
ENDBRANCH   9  12
ENDBRANCH   3   9
ENDBRANCH   1   8
BRANCH   2  17
ATOM     17  N   UNL     1      22.449  42.291  46.830  0.00  0.00    +0.000 N 
ATOM     18  C   UNL     1      21.270  41.694  47.242  0.00  0.00    +0.000 C 
ATOM     19  O   UNL     1      21.078  40.483  47.240  0.00  0.00    +0.000 OA
ATOM     20  H   UNL     1      22.498  43.273  46.772  0.00  0.00    +0.000 HD
BRANCH  18  21
ATOM     21  C   UNL     1      20.138  42.596  47.572  0.00  0.00    +0.000 A 
ATOM     22  C   UNL     1      19.484  43.230  46.507  0.00  0.00    +0.000 A 
ATOM     23  C   UNL     1      19.661  42.759  48.878  0.00  0.00    +0.000 A 
ATOM     24  C   UNL     1      18.346  44.001  46.735  0.00  0.00    +0.000 A 
ATOM     25  C   UNL     1      18.515  43.529  49.102  0.00  0.00    +0.000 A 
ATOM     26  C   UNL     1      17.857  44.140  48.031  0.00  0.00    +0.000 A 
ENDBRANCH  18  21
ENDBRANCH   2  17
BRANCH   2  27
ATOM     27  C   UNL     1      24.807  41.660  47.350  0.00  0.00    +0.000 C 
ATOM     28  O   UNL     1      25.929  41.433  46.912  0.00  0.00    +0.000 OA
ATOM     29  N   UNL     1      24.528  42.061  48.644  0.00  0.00    +0.000 N 
ATOM     30  H   UNL     1      23.617  42.072  49.018  0.00  0.00    +0.000 HD
BRANCH  29  31
ATOM     31  O   UNL     1      25.672  42.455  49.386  0.00  0.00    +0.000 OA
ATOM     32  C   UNL     1      25.233  43.113  50.571  0.00  0.00    +0.000 C 
ENDBRANCH  29  31
ENDBRANCH   2  27
TORSDOF 7
ENDMDL
MODEL 3
REMARK VINA RESULT:      -5.6      2.167      3.738
REMARK  Name = 323165
REMARK  8 active torsions:
REMARK  status: ('A' for Active; 'I' for Inactive)
REMARK    1  A    between atoms: C_3  and  O_5
REMARK    2  A    between atoms: O_5  and  C_8
REMARK    3  A    between atoms: C_14  and  C_15
REMARK    4  A    between atoms: C_16  and  N_17
REMARK    5  A    between atoms: C_16  and  C_18
REMARK    6  A    between atoms: C_19  and  C_23
REMARK    7  A    between atoms: N_21  and  O_24
REMARK    8  A    between atoms: O_24  and  C_27
REMARK                            x       y       z     vdW  Elec       q    Type
REMARK                         _______ _______ _______ _____ _____    ______ ____
ROOT
ATOM      1  C   UNL     1      20.737  39.100  44.033  0.00  0.00    +0.000 C 
ATOM      2  C   UNL     1      19.539  39.581  44.416  0.00  0.00    +0.000 C 
ENDROOT
BRANCH   1   8
ATOM      3  C   UNL     1      24.348  40.203  45.982  0.00  0.00    +0.000 A 
ATOM      4  C   UNL     1      23.723  41.118  45.137  0.00  0.00    +0.000 A 
ATOM      5  C   UNL     1      23.939  38.867  45.985  0.00  0.00    +0.000 A 
ATOM      6  C   UNL     1      22.586  40.733  44.413  0.00  0.00    +0.000 A 
ATOM      7  C   UNL     1      22.791  38.490  45.281  0.00  0.00    +0.000 A 
ATOM      8  C   UNL     1      22.081  39.433  44.527  0.00  0.00    +0.000 A 
BRANCH   3   9
ATOM      9  O   UNL     1      25.344  40.674  46.816  0.00  0.00    +0.000 OA
BRANCH   9  12
ATOM     10 BR   UNL     1      27.781  41.505  48.534  0.00  0.00    +0.000 Br
ATOM     11  C   UNL     1      25.941  41.882  48.803  0.00  0.00    +0.000 A 
ATOM     12  C   UNL     1      24.962  41.455  47.897  0.00  0.00    +0.000 A 
ATOM     13  C   UNL     1      25.579  42.609  49.944  0.00  0.00    +0.000 A 
ATOM     14  C   UNL     1      23.631  41.853  48.105  0.00  0.00    +0.000 A 
ATOM     15  C   UNL     1      24.242  42.931  50.177  0.00  0.00    +0.000 A 
ATOM     16  C   UNL     1      23.270  42.565  49.251  0.00  0.00    +0.000 A 
ENDBRANCH   9  12
ENDBRANCH   3   9
ENDBRANCH   1   8
BRANCH   2  17
ATOM     17  N   UNL     1      19.322  40.424  45.496  0.00  0.00    +0.000 N 
ATOM     18  C   UNL     1      19.256  41.797  45.337  0.00  0.00    +0.000 C 
ATOM     19  O   UNL     1      19.490  42.377  44.282  0.00  0.00    +0.000 OA
ATOM     20  H   UNL     1      19.212  40.036  46.395  0.00  0.00    +0.000 HD
BRANCH  18  21
ATOM     21  C   UNL     1      19.021  42.606  46.559  0.00  0.00    +0.000 A 
ATOM     22  C   UNL     1      18.016  43.581  46.505  0.00  0.00    +0.000 A 
ATOM     23  C   UNL     1      19.696  42.368  47.762  0.00  0.00    +0.000 A 
ATOM     24  C   UNL     1      17.667  44.299  47.647  0.00  0.00    +0.000 A 
ATOM     25  C   UNL     1      19.339  43.087  48.908  0.00  0.00    +0.000 A 
ATOM     26  C   UNL     1      18.320  44.043  48.850  0.00  0.00    +0.000 A 
ENDBRANCH  18  21
ENDBRANCH   2  17
BRANCH   2  27
ATOM     27  C   UNL     1      18.363  39.191  43.550  0.00  0.00    +0.000 C 
ATOM     28  O   UNL     1      17.980  38.030  43.446  0.00  0.00    +0.000 OA
ATOM     29  N   UNL     1      17.783  40.276  42.918  0.00  0.00    +0.000 N 
ATOM     30  H   UNL     1      18.206  41.164  42.881  0.00  0.00    +0.000 HD
BRANCH  29  31
ATOM     31  O   UNL     1      16.523  39.995  42.327  0.00  0.00    +0.000 OA
ATOM     32  C   UNL     1      16.011  41.202  41.769  0.00  0.00    +0.000 C 
ENDBRANCH  29  31
ENDBRANCH   2  27
TORSDOF 7
ENDMDL
MODEL 4
REMARK VINA RESULT:      -5.1      2.509      4.158
REMARK  Name = 323165
REMARK  8 active torsions:
REMARK  status: ('A' for Active; 'I' for Inactive)
REMARK    1  A    between atoms: C_3  and  O_5
REMARK    2  A    between atoms: O_5  and  C_8
REMARK    3  A    between atoms: C_14  and  C_15
REMARK    4  A    between atoms: C_16  and  N_17
REMARK    5  A    between atoms: C_16  and  C_18
REMARK    6  A    between atoms: C_19  and  C_23
REMARK    7  A    between atoms: N_21  and  O_24
REMARK    8  A    between atoms: O_24  and  C_27
REMARK                            x       y       z     vdW  Elec       q    Type
REMARK                         _______ _______ _______ _____ _____    ______ ____
ROOT
ATOM      1  C   UNL     1      20.614  39.021  44.345  0.00  0.00    +0.000 C 
ATOM      2  C   UNL     1      19.375  39.506  44.550  0.00  0.00    +0.000 C 
ENDROOT
BRANCH   1   8
ATOM      3  C   UNL     1      24.368  40.559  45.609  0.00  0.00    +0.000 A 
ATOM      4  C   UNL     1      23.231  41.358  45.722  0.00  0.00    +0.000 A 
ATOM      5  C   UNL     1      24.317  39.381  44.859  0.00  0.00    +0.000 A 
ATOM      6  C   UNL     1      22.006  40.899  45.219  0.00  0.00    +0.000 A 
ATOM      7  C   UNL     1      23.090  38.914  44.378  0.00  0.00    +0.000 A 
ATOM      8  C   UNL     1      21.918  39.649  44.596  0.00  0.00    +0.000 A 
BRANCH   3   9
ATOM      9  O   UNL     1      25.506  40.961  46.281  0.00  0.00    +0.000 OA
BRANCH   9  12
ATOM     10 BR   UNL     1      23.658  39.316  48.140  0.00  0.00    +0.000 Br
ATOM     11  C   UNL     1      24.498  40.987  48.460  0.00  0.00    +0.000 A 
ATOM     12  C   UNL     1      25.342  41.579  47.512  0.00  0.00    +0.000 A 
ATOM     13  C   UNL     1      24.253  41.623  49.683  0.00  0.00    +0.000 A 
ATOM     14  C   UNL     1      26.009  42.768  47.852  0.00  0.00    +0.000 A 
ATOM     15  C   UNL     1      24.864  42.842  49.976  0.00  0.00    +0.000 A 
ATOM     16  C   UNL     1      25.752  43.408  49.066  0.00  0.00    +0.000 A 
ENDBRANCH   9  12
ENDBRANCH   3   9
ENDBRANCH   1   8
BRANCH   2  17
ATOM     17  N   UNL     1      19.077  40.696  45.197  0.00  0.00    +0.000 N 
ATOM     18  C   UNL     1      18.261  40.723  46.315  0.00  0.00    +0.000 C 
ATOM     19  O   UNL     1      17.659  39.747  46.749  0.00  0.00    +0.000 OA
ATOM     20  H   UNL     1      19.455  41.539  44.855  0.00  0.00    +0.000 HD
BRANCH  18  21
ATOM     21  C   UNL     1      18.007  42.050  46.930  0.00  0.00    +0.000 A 
ATOM     22  C   UNL     1      18.995  42.571  47.777  0.00  0.00    +0.000 A 
ATOM     23  C   UNL     1      16.876  42.817  46.627  0.00  0.00    +0.000 A 
ATOM     24  C   UNL     1      18.871  43.857  48.299  0.00  0.00    +0.000 A 
ATOM     25  C   UNL     1      16.759  44.110  47.148  0.00  0.00    +0.000 A 
ATOM     26  C   UNL     1      17.760  44.629  47.975  0.00  0.00    +0.000 A 
ENDBRANCH  18  21
ENDBRANCH   2  17
BRANCH   2  27
ATOM     27  C   UNL     1      18.240  38.687  43.976  0.00  0.00    +0.000 C 
ATOM     28  O   UNL     1      17.426  39.154  43.188  0.00  0.00    +0.000 OA
ATOM     29  N   UNL     1      18.244  37.381  44.431  0.00  0.00    +0.000 N 
ATOM     30  H   UNL     1      18.798  37.077  45.186  0.00  0.00    +0.000 HD
BRANCH  29  31
ATOM     31  O   UNL     1      17.376  36.517  43.712  0.00  0.00    +0.000 OA
ATOM     32  C   UNL     1      16.639  35.739  44.651  0.00  0.00    +0.000 C 
ENDBRANCH  29  31
ENDBRANCH   2  27
TORSDOF 7
ENDMDL
MODEL 5
REMARK VINA RESULT:      -4.6      1.214      1.739
REMARK  Name = 323165
REMARK  8 active torsions:
REMARK  status: ('A' for Active; 'I' for Inactive)
REMARK    1  A    between atoms: C_3  and  O_5
REMARK    2  A    between atoms: O_5  and  C_8
REMARK    3  A    between atoms: C_14  and  C_15
REMARK    4  A    between atoms: C_16  and  N_17
REMARK    5  A    between atoms: C_16  and  C_18
REMARK    6  A    between atoms: C_19  and  C_23
REMARK    7  A    between atoms: N_21  and  O_24
REMARK    8  A    between atoms: O_24  and  C_27
REMARK                            x       y       z     vdW  Elec       q    Type
REMARK                         _______ _______ _______ _____ _____    ______ ____
ROOT
ATOM      1  C   UNL     1      20.532  41.438  43.757  0.00  0.00    +0.000 C 
ATOM      2  C   UNL     1      19.342  40.951  43.357  0.00  0.00    +0.000 C 
ENDROOT
BRANCH   1   8
ATOM      3  C   UNL     1      23.395  40.423  46.728  0.00  0.00    +0.000 A 
ATOM      4  C   UNL     1      23.796  40.509  45.396  0.00  0.00    +0.000 A 
ATOM      5  C   UNL     1      22.034  40.414  47.044  0.00  0.00    +0.000 A 
ATOM      6  C   UNL     1      22.844  40.747  44.396  0.00  0.00    +0.000 A 
ATOM      7  C   UNL     1      21.087  40.674  46.049  0.00  0.00    +0.000 A 
ATOM      8  C   UNL     1      21.491  40.889  44.725  0.00  0.00    +0.000 A 
BRANCH   3   9
ATOM      9  O   UNL     1      24.380  40.378  47.695  0.00  0.00    +0.000 OA
BRANCH   9  12
ATOM     10 BR   UNL     1      27.279  41.404  48.054  0.00  0.00    +0.000 Br
ATOM     11  C   UNL     1      25.688  41.982  48.913  0.00  0.00    +0.000 A 
ATOM     12  C   UNL     1      24.441  41.427  48.601  0.00  0.00    +0.000 A 
ATOM     13  C   UNL     1      25.792  42.991  49.878  0.00  0.00    +0.000 A 
ATOM     14  C   UNL     1      23.292  41.969  49.202  0.00  0.00    +0.000 A 
ATOM     15  C   UNL     1      24.649  43.467  50.522  0.00  0.00    +0.000 A 
ATOM     16  C   UNL     1      23.399  42.966  50.174  0.00  0.00    +0.000 A 
ENDBRANCH   9  12
ENDBRANCH   3   9
ENDBRANCH   1   8
BRANCH   2  17
ATOM     17  N   UNL     1      18.831  39.707  43.697  0.00  0.00    +0.000 N 
ATOM     18  C   UNL     1      17.915  39.561  44.724  0.00  0.00    +0.000 C 
ATOM     19  O   UNL     1      17.574  40.470  45.473  0.00  0.00    +0.000 OA
ATOM     20  H   UNL     1      19.125  38.912  43.195  0.00  0.00    +0.000 HD
BRANCH  18  21
ATOM     21  C   UNL     1      17.433  38.185  45.005  0.00  0.00    +0.000 A 
ATOM     22  C   UNL     1      17.608  37.221  44.002  0.00  0.00    +0.000 A 
ATOM     23  C   UNL     1      16.901  37.811  46.244  0.00  0.00    +0.000 A 
ATOM     24  C   UNL     1      17.279  35.888  44.239  0.00  0.00    +0.000 A 
ATOM     25  C   UNL     1      16.579  36.470  46.480  0.00  0.00    +0.000 A 
ATOM     26  C   UNL     1      16.777  35.512  45.482  0.00  0.00    +0.000 A 
ENDBRANCH  18  21
ENDBRANCH   2  17
BRANCH   2  27
ATOM     27  C   UNL     1      18.500  41.876  42.509  0.00  0.00    +0.000 C 
ATOM     28  O   UNL     1      18.814  43.043  42.297  0.00  0.00    +0.000 OA
ATOM     29  N   UNL     1      17.369  41.258  42.007  0.00  0.00    +0.000 N 
ATOM     30  H   UNL     1      17.051  40.382  42.325  0.00  0.00    +0.000 HD
BRANCH  29  31
ATOM     31  O   UNL     1      16.707  41.998  40.993  0.00  0.00    +0.000 OA
ATOM     32  C   UNL     1      15.479  41.343  40.688  0.00  0.00    +0.000 C 
ENDBRANCH  29  31
ENDBRANCH   2  27
TORSDOF 7
ENDMDL
MODEL 6
REMARK VINA RESULT:      -4.3      3.234      7.910
REMARK  Name = 323165
REMARK  8 active torsions:
REMARK  status: ('A' for Active; 'I' for Inactive)
REMARK    1  A    between atoms: C_3  and  O_5
REMARK    2  A    between atoms: O_5  and  C_8
REMARK    3  A    between atoms: C_14  and  C_15
REMARK    4  A    between atoms: C_16  and  N_17
REMARK    5  A    between atoms: C_16  and  C_18
REMARK    6  A    between atoms: C_19  and  C_23
REMARK    7  A    between atoms: N_21  and  O_24
REMARK    8  A    between atoms: O_24  and  C_27
REMARK                            x       y       z     vdW  Elec       q    Type
REMARK                         _______ _______ _______ _____ _____    ______ ____
ROOT
ATOM      1  C   UNL     1      24.127  40.786  46.263  0.00  0.00    +0.000 C 
ATOM      2  C   UNL     1      23.820  41.639  47.259  0.00  0.00    +0.000 C 
ENDROOT
BRANCH   1   8
ATOM      3  C   UNL     1      21.198  39.463  43.484  0.00  0.00    +0.000 A 
ATOM      4  C   UNL     1      21.729  38.555  44.398  0.00  0.00    +0.000 A 
ATOM      5  C   UNL     1      21.802  40.711  43.314  0.00  0.00    +0.000 A 
ATOM      6  C   UNL     1      22.764  38.954  45.254  0.00  0.00    +0.000 A 
ATOM      7  C   UNL     1      22.819  41.117  44.183  0.00  0.00    +0.000 A 
ATOM      8  C   UNL     1      23.275  40.256  45.190  0.00  0.00    +0.000 A 
BRANCH   3   9
ATOM      9  O   UNL     1      20.059  39.091  42.796  0.00  0.00    +0.000 OA
BRANCH   9  12
ATOM     10 BR   UNL     1      18.090  37.353  44.433  0.00  0.00    +0.000 Br
ATOM     11  C   UNL     1      17.867  39.118  43.774  0.00  0.00    +0.000 A 
ATOM     12  C   UNL     1      18.886  39.777  43.074  0.00  0.00    +0.000 A 
ATOM     13  C   UNL     1      16.643  39.757  44.007  0.00  0.00    +0.000 A 
ATOM     14  C   UNL     1      18.690  41.116  42.700  0.00  0.00    +0.000 A 
ATOM     15  C   UNL     1      16.436  41.063  43.561  0.00  0.00    +0.000 A 
ATOM     16  C   UNL     1      17.464  41.747  42.921  0.00  0.00    +0.000 A 
ENDBRANCH   9  12
ENDBRANCH   3   9
ENDBRANCH   1   8
BRANCH   2  17
ATOM     17  N   UNL     1      22.620  42.321  47.389  0.00  0.00    +0.000 N 
ATOM     18  C   UNL     1      21.414  41.647  47.483  0.00  0.00    +0.000 C 
ATOM     19  O   UNL     1      21.295  40.434  47.350  0.00  0.00    +0.000 OA
ATOM     20  H   UNL     1      22.625  43.306  47.415  0.00  0.00    +0.000 HD
BRANCH  18  21
ATOM     21  C   UNL     1      20.189  42.474  47.618  0.00  0.00    +0.000 A 
ATOM     22  C   UNL     1      19.713  42.718  48.914  0.00  0.00    +0.000 A 
ATOM     23  C   UNL     1      19.561  43.076  46.521  0.00  0.00    +0.000 A 
ATOM     24  C   UNL     1      18.635  43.576  49.120  0.00  0.00    +0.000 A 
ATOM     25  C   UNL     1      18.483  43.942  46.733  0.00  0.00    +0.000 A 
ATOM     26  C   UNL     1      18.028  44.196  48.030  0.00  0.00    +0.000 A 
ENDBRANCH  18  21
ENDBRANCH   2  17
BRANCH   2  27
ATOM     27  C   UNL     1      24.873  41.810  48.331  0.00  0.00    +0.000 C 
ATOM     28  O   UNL     1      26.013  41.374  48.208  0.00  0.00    +0.000 OA
ATOM     29  N   UNL     1      24.406  42.508  49.430  0.00  0.00    +0.000 N 
ATOM     30  H   UNL     1      23.451  42.697  49.579  0.00  0.00    +0.000 HD
BRANCH  29  31
ATOM     31  O   UNL     1      25.426  42.928  50.324  0.00  0.00    +0.000 OA
ATOM     32  C   UNL     1      24.858  43.053  51.625  0.00  0.00    +0.000 C 
ENDBRANCH  29  31
ENDBRANCH   2  27
TORSDOF 7
ENDMDL
