MODEL 1
REMARK VINA RESULT:      -0.2      0.000      0.000
REMARK  Name = 324516
REMARK  8 active torsions:
REMARK  status: ('A' for Active; 'I' for Inactive)
REMARK    1  A    between atoms: C_3  and  O_5
REMARK    2  A    between atoms: O_5  and  C_8
REMARK    3  A    between atoms: C_14  and  C_15
REMARK    4  A    between atoms: C_16  and  N_17
REMARK    5  A    between atoms: C_16  and  C_18
REMARK    6  A    between atoms: C_19  and  C_23
REMARK    7  A    between atoms: N_21  and  C_24
REMARK    8  A    between atoms: C_27  and  C_31
REMARK                            x       y       z     vdW  Elec       q    Type
REMARK                         _______ _______ _______ _____ _____    ______ ____
ROOT
ATOM      1  C   UNL     1      22.719  40.465  44.867  0.00  0.00    +0.000 C 
ATOM      2  C   UNL     1      22.174  40.950  45.996  0.00  0.00    +0.000 C 
ENDROOT
BRANCH   1   8
ATOM      3  C   UNL     1      26.485  41.729  43.338  0.00  0.00    +0.000 A 
ATOM      4  C   UNL     1      25.394  41.597  42.479  0.00  0.00    +0.000 A 
ATOM      5  C   UNL     1      26.408  41.209  44.635  0.00  0.00    +0.000 A 
ATOM      6  C   UNL     1      24.182  41.078  42.955  0.00  0.00    +0.000 A 
ATOM      7  C   UNL     1      25.191  40.705  45.115  0.00  0.00    +0.000 A 
ATOM      8  C   UNL     1      24.057  40.683  44.291  0.00  0.00    +0.000 A 
BRANCH   3   9
ATOM      9  O   UNL     1      27.603  42.384  42.860  0.00  0.00    +0.000 OA
BRANCH   9  12
ATOM     10 BR   UNL     1      27.936  45.267  43.935  0.00  0.00    +0.000 Br
ATOM     11  C   UNL     1      27.523  44.683  42.176  0.00  0.00    +0.000 A 
ATOM     12  C   UNL     1      27.439  43.322  41.853  0.00  0.00    +0.000 A 
ATOM     13  C   UNL     1      27.311  45.662  41.195  0.00  0.00    +0.000 A 
ATOM     14  C   UNL     1      27.235  42.962  40.511  0.00  0.00    +0.000 A 
ATOM     15  C   UNL     1      27.037  45.287  39.880  0.00  0.00    +0.000 A 
ATOM     16  C   UNL     1      27.013  43.938  39.536  0.00  0.00    +0.000 A 
ENDBRANCH   9  12
ENDBRANCH   3   9
ENDBRANCH   1   8
BRANCH   2  17
ATOM     17  N   UNL     1      22.883  41.687  46.932  0.00  0.00    +0.000 N 
ATOM     18  C   UNL     1      23.575  41.044  47.945  0.00  0.00    +0.000 C 
ATOM     19  O   UNL     1      23.702  39.826  48.020  0.00  0.00    +0.000 OA
ATOM     20  H   UNL     1      22.893  42.670  46.876  0.00  0.00    +0.000 HD
BRANCH  18  21
ATOM     21  C   UNL     1      24.218  41.922  48.959  0.00  0.00    +0.000 A 
ATOM     22  C   UNL     1      23.467  42.373  50.051  0.00  0.00    +0.000 A 
ATOM     23  C   UNL     1      25.593  42.179  48.902  0.00  0.00    +0.000 A 
ATOM     24  C   UNL     1      24.096  43.059  51.094  0.00  0.00    +0.000 A 
ATOM     25  C   UNL     1      26.218  42.853  49.956  0.00  0.00    +0.000 A 
ATOM     26  C   UNL     1      25.471  43.285  51.052  0.00  0.00    +0.000 A 
ENDBRANCH  18  21
ENDBRANCH   2  17
BRANCH   2  27
ATOM     27  C   UNL     1      20.733  40.540  46.286  0.00  0.00    +0.000 C 
ATOM     28  O   UNL     1      20.263  40.624  47.418  0.00  0.00    +0.000 OA
ATOM     29  N   UNL     1      20.029  40.049  45.195  0.00  0.00    +0.000 N 
ATOM     30  H   UNL     1      20.475  40.009  44.319  0.00  0.00    +0.000 HD
BRANCH  29  31
ATOM     31  C   UNL     1      18.678  39.602  45.305  0.00  0.00    +0.000 A 
ATOM     32  C   UNL     1      17.570  40.431  45.583  0.00  0.00    +0.000 A 
ATOM     33  C   UNL     1      18.453  38.235  45.075  0.00  0.00    +0.000 A 
ATOM     34  C   UNL     1      16.278  39.872  45.670  0.00  0.00    +0.000 A 
ATOM     35  C   UNL     1      17.169  37.691  45.177  0.00  0.00    +0.000 A 
ATOM     36  C   UNL     1      16.082  38.506  45.472  0.00  0.00    +0.000 A 
BRANCH  32  37
ATOM     37  C   UNL     1      17.617  41.918  45.662  0.00  0.00    +0.000 C 
ATOM     38  O   UNL     1      17.157  42.557  46.599  0.00  0.00    +0.000 OA
ATOM     39  O   UNL     1      18.031  42.496  44.513  0.00  0.00    +0.000 OA
ENDBRANCH  32  37
ENDBRANCH  29  31
ENDBRANCH   2  27
TORSDOF 8
ENDMDL
MODEL 2
REMARK VINA RESULT:       0.2      1.198      1.623
REMARK  Name = 324516
REMARK  8 active torsions:
REMARK  status: ('A' for Active; 'I' for Inactive)
REMARK    1  A    between atoms: C_3  and  O_5
REMARK    2  A    between atoms: O_5  and  C_8
REMARK    3  A    between atoms: C_14  and  C_15
REMARK    4  A    between atoms: C_16  and  N_17
REMARK    5  A    between atoms: C_16  and  C_18
REMARK    6  A    between atoms: C_19  and  C_23
REMARK    7  A    between atoms: N_21  and  C_24
REMARK    8  A    between atoms: C_27  and  C_31
REMARK                            x       y       z     vdW  Elec       q    Type
REMARK                         _______ _______ _______ _____ _____    ______ ____
ROOT
ATOM      1  C   UNL     1      23.276  40.620  44.507  0.00  0.00    +0.000 C 
ATOM      2  C   UNL     1      22.677  40.990  45.653  0.00  0.00    +0.000 C 
ENDROOT
BRANCH   1   8
ATOM      3  C   UNL     1      26.909  42.238  42.991  0.00  0.00    +0.000 A 
ATOM      4  C   UNL     1      25.934  41.769  42.110  0.00  0.00    +0.000 A 
ATOM      5  C   UNL     1      26.802  41.945  44.355  0.00  0.00    +0.000 A 
ATOM      6  C   UNL     1      24.784  41.137  42.603  0.00  0.00    +0.000 A 
ATOM      7  C   UNL     1      25.645  41.327  44.850  0.00  0.00    +0.000 A 
ATOM      8  C   UNL     1      24.607  40.965  43.980  0.00  0.00    +0.000 A 
BRANCH   3   9
ATOM      9  O   UNL     1      27.945  42.984  42.465  0.00  0.00    +0.000 OA
BRANCH   9  12
ATOM     10 BR   UNL     1      27.526  44.343  39.717  0.00  0.00    +0.000 Br
ATOM     11  C   UNL     1      27.741  45.138  41.427  0.00  0.00    +0.000 A 
ATOM     12  C   UNL     1      27.893  44.364  42.586  0.00  0.00    +0.000 A 
ATOM     13  C   UNL     1      27.737  46.538  41.503  0.00  0.00    +0.000 A 
ATOM     14  C   UNL     1      27.940  45.016  43.828  0.00  0.00    +0.000 A 
ATOM     15  C   UNL     1      27.859  47.173  42.739  0.00  0.00    +0.000 A 
ATOM     16  C   UNL     1      27.946  46.412  43.901  0.00  0.00    +0.000 A 
ENDBRANCH   9  12
ENDBRANCH   3   9
ENDBRANCH   1   8
BRANCH   2  17
ATOM     17  N   UNL     1      23.316  41.709  46.652  0.00  0.00    +0.000 N 
ATOM     18  C   UNL     1      23.928  41.046  47.703  0.00  0.00    +0.000 C 
ATOM     19  O   UNL     1      24.046  39.826  47.765  0.00  0.00    +0.000 OA
ATOM     20  H   UNL     1      23.332  42.692  46.614  0.00  0.00    +0.000 HD
BRANCH  18  21
ATOM     21  C   UNL     1      24.496  41.903  48.777  0.00  0.00    +0.000 A 
ATOM     22  C   UNL     1      23.673  42.315  49.832  0.00  0.00    +0.000 A 
ATOM     23  C   UNL     1      25.868  42.180  48.812  0.00  0.00    +0.000 A 
ATOM     24  C   UNL     1      24.227  42.981  50.930  0.00  0.00    +0.000 A 
ATOM     25  C   UNL     1      26.418  42.832  49.919  0.00  0.00    +0.000 A 
ATOM     26  C   UNL     1      25.599  43.225  50.979  0.00  0.00    +0.000 A 
ENDBRANCH  18  21
ENDBRANCH   2  17
BRANCH   2  27
ATOM     27  C   UNL     1      21.262  40.467  45.880  0.00  0.00    +0.000 C 
ATOM     28  O   UNL     1      20.951  39.909  46.930  0.00  0.00    +0.000 OA
ATOM     29  N   UNL     1      20.389  40.645  44.815  0.00  0.00    +0.000 N 
ATOM     30  H   UNL     1      20.713  41.099  44.005  0.00  0.00    +0.000 HD
BRANCH  29  31
ATOM     31  C   UNL     1      19.038  40.190  44.861  0.00  0.00    +0.000 A 
ATOM     32  C   UNL     1      17.937  40.961  45.292  0.00  0.00    +0.000 A 
ATOM     33  C   UNL     1      18.803  38.885  44.398  0.00  0.00    +0.000 A 
ATOM     34  C   UNL     1      16.643  40.401  45.295  0.00  0.00    +0.000 A 
ATOM     35  C   UNL     1      17.517  38.336  44.416  0.00  0.00    +0.000 A 
ATOM     36  C   UNL     1      16.437  39.091  44.863  0.00  0.00    +0.000 A 
BRANCH  32  37
ATOM     37  C   UNL     1      17.993  42.411  45.630  0.00  0.00    +0.000 C 
ATOM     38  O   UNL     1      19.027  42.992  45.936  0.00  0.00    +0.000 OA
ATOM     39  O   UNL     1      16.771  42.971  45.764  0.00  0.00    +0.000 OA
ENDBRANCH  32  37
ENDBRANCH  29  31
ENDBRANCH   2  27
TORSDOF 8
ENDMDL
