MODEL 1
REMARK VINA RESULT:      -7.6      0.000      0.000
REMARK  Name = 323468
REMARK  8 active torsions:
REMARK  status: ('A' for Active; 'I' for Inactive)
REMARK    1  A    between atoms: C_3  and  O_5
REMARK    2  A    between atoms: O_5  and  C_8
REMARK    3  A    between atoms: C_14  and  C_15
REMARK    4  A    between atoms: CA_16  and  N_17
REMARK    5  A    between atoms: CA_16  and  C_18
REMARK    6  A    between atoms: C_19  and  C_23
REMARK    7  A    between atoms: C_23  and  C_24
REMARK    8  A    between atoms: C_24  and  C_25
REMARK                            x       y       z     vdW  Elec       q    Type
REMARK                         _______ _______ _______ _____ _____    ______ ____
ROOT
ATOM      1  C   UNL     1      22.700  42.228  48.677  0.00  0.00    +0.000 C 
ATOM      2  CA  UNL     1      23.989  42.041  48.365  0.00  0.00    +0.000 C 
ENDROOT
BRANCH   1   8
ATOM      3  C   UNL     1      18.873  41.501  46.868  0.00  0.00    +0.000 A 
ATOM      4  C   UNL     1      19.773  40.443  46.995  0.00  0.00    +0.000 A 
ATOM      5  C   UNL     1      19.338  42.804  47.075  0.00  0.00    +0.000 A 
ATOM      6  C   UNL     1      21.081  40.676  47.481  0.00  0.00    +0.000 A 
ATOM      7  C   UNL     1      20.582  43.019  47.657  0.00  0.00    +0.000 A 
ATOM      8  C   UNL     1      21.459  41.955  47.904  0.00  0.00    +0.000 A 
BRANCH   3   9
ATOM      9  O   UNL     1      17.528  41.282  46.575  0.00  0.00    +0.000 OA
BRANCH   9  12
ATOM     10 BR   UNL     1      16.815  38.283  45.728  0.00  0.00    +0.000 Br
ATOM     11  C   UNL     1      16.904  39.860  44.679  0.00  0.00    +0.000 A 
ATOM     12  C   UNL     1      17.188  41.123  45.226  0.00  0.00    +0.000 A 
ATOM     13  C   UNL     1      16.609  39.728  43.308  0.00  0.00    +0.000 A 
ATOM     14  C   UNL     1      17.077  42.238  44.378  0.00  0.00    +0.000 A 
ATOM     15  C   UNL     1      16.536  40.852  42.485  0.00  0.00    +0.000 A 
ATOM     16  C   UNL     1      16.764  42.109  43.026  0.00  0.00    +0.000 A 
ENDBRANCH   9  12
ENDBRANCH   3   9
ENDBRANCH   1   8
BRANCH   2  17
ATOM     17  N   UNL     1      24.473  41.509  47.180  0.00  0.00    +0.000 N 
ATOM     18  C   UNL     1      24.499  40.167  46.830  0.00  0.00    +0.000 C 
ATOM     19  O   UNL     1      24.000  39.234  47.432  0.00  0.00    +0.000 OA
ATOM     20  H   UNL     1      24.836  42.146  46.522  0.00  0.00    +0.000 HD
BRANCH  18  21
ATOM     21  C   UNL     1      25.105  39.892  45.469  0.00  0.00    +0.000 C 
BRANCH  21  22
ATOM     22  C   UNL     1      24.245  40.577  44.399  0.00  0.00    +0.000 C 
BRANCH  22  23
ATOM     23  C   UNL     1      22.743  40.374  44.596  0.00  0.00    +0.000 C 
ATOM     24  C   UNL     1      22.243  39.094  43.921  0.00  0.00    +0.000 C 
ATOM     25  C   UNL     1      21.894  41.486  43.990  0.00  0.00    +0.000 C 
ATOM     26  C   UNL     1      20.802  39.365  43.501  0.00  0.00    +0.000 C 
ATOM     27  C   UNL     1      20.540  40.847  43.734  0.00  0.00    +0.000 C 
ENDBRANCH  22  23
ENDBRANCH  21  22
ENDBRANCH  18  21
ENDBRANCH   2  17
BRANCH   2  28
ATOM     28  C   UNL     1      24.977  42.482  49.434  0.00  0.00    +0.000 C 
ATOM     29  O   UNL     1      24.662  42.936  50.527  0.00  0.00    +0.000 OA
ATOM     30  OXT UNL     1      26.266  42.370  49.056  0.00  0.00    +0.000 OA
ENDBRANCH   2  28
TORSDOF 8
ENDMDL
MODEL 2
REMARK VINA RESULT:      -7.5      3.033      7.695
REMARK  Name = 323468
REMARK  8 active torsions:
REMARK  status: ('A' for Active; 'I' for Inactive)
REMARK    1  A    between atoms: C_3  and  O_5
REMARK    2  A    between atoms: O_5  and  C_8
REMARK    3  A    between atoms: C_14  and  C_15
REMARK    4  A    between atoms: CA_16  and  N_17
REMARK    5  A    between atoms: CA_16  and  C_18
REMARK    6  A    between atoms: C_19  and  C_23
REMARK    7  A    between atoms: C_23  and  C_24
REMARK    8  A    between atoms: C_24  and  C_25
REMARK                            x       y       z     vdW  Elec       q    Type
REMARK                         _______ _______ _______ _____ _____    ______ ____
ROOT
ATOM      1  C   UNL     1      19.927  42.024  43.540  0.00  0.00    +0.000 C 
ATOM      2  CA  UNL     1      18.596  41.884  43.503  0.00  0.00    +0.000 C 
ENDROOT
BRANCH   1   8
ATOM      3  C   UNL     1      22.399  41.112  46.932  0.00  0.00    +0.000 A 
ATOM      4  C   UNL     1      21.902  42.407  46.786  0.00  0.00    +0.000 A 
ATOM      5  C   UNL     1      22.310  40.235  45.846  0.00  0.00    +0.000 A 
ATOM      6  C   UNL     1      21.182  42.766  45.622  0.00  0.00    +0.000 A 
ATOM      7  C   UNL     1      21.509  40.550  44.754  0.00  0.00    +0.000 A 
ATOM      8  C   UNL     1      20.902  41.807  44.643  0.00  0.00    +0.000 A 
BRANCH   3   9
ATOM      9  O   UNL     1      22.944  40.673  48.137  0.00  0.00    +0.000 OA
BRANCH   9  12
ATOM     10 BR   UNL     1      25.738  40.667  46.583  0.00  0.00    +0.000 Br
ATOM     11  C   UNL     1      25.237  41.537  48.192  0.00  0.00    +0.000 A 
ATOM     12  C   UNL     1      23.935  41.474  48.717  0.00  0.00    +0.000 A 
ATOM     13  C   UNL     1      26.224  42.318  48.825  0.00  0.00    +0.000 A 
ATOM     14  C   UNL     1      23.644  42.282  49.830  0.00  0.00    +0.000 A 
ATOM     15  C   UNL     1      25.911  43.085  49.947  0.00  0.00    +0.000 A 
ATOM     16  C   UNL     1      24.616  43.071  50.444  0.00  0.00    +0.000 A 
ENDBRANCH   9  12
ENDBRANCH   3   9
ENDBRANCH   1   8
BRANCH   2  17
ATOM     17  N   UNL     1      17.789  41.471  44.552  0.00  0.00    +0.000 N 
ATOM     18  C   UNL     1      17.287  42.270  45.567  0.00  0.00    +0.000 C 
ATOM     19  O   UNL     1      17.358  43.482  45.662  0.00  0.00    +0.000 OA
ATOM     20  H   UNL     1      17.549  40.516  44.579  0.00  0.00    +0.000 HD
BRANCH  18  21
ATOM     21  C   UNL     1      16.444  41.527  46.583  0.00  0.00    +0.000 C 
BRANCH  21  22
ATOM     22  C   UNL     1      17.353  40.589  47.386  0.00  0.00    +0.000 C 
BRANCH  22  23
ATOM     23  C   UNL     1      17.232  39.120  46.980  0.00  0.00    +0.000 C 
ATOM     24  C   UNL     1      18.136  38.775  45.793  0.00  0.00    +0.000 C 
ATOM     25  C   UNL     1      15.831  38.728  46.523  0.00  0.00    +0.000 C 
ATOM     26  C   UNL     1      17.429  37.668  45.021  0.00  0.00    +0.000 C 
ATOM     27  C   UNL     1      16.038  37.521  45.624  0.00  0.00    +0.000 C 
ENDBRANCH  22  23
ENDBRANCH  21  22
ENDBRANCH  18  21
ENDBRANCH   2  17
BRANCH   2  28
ATOM     28  C   UNL     1      17.951  42.236  42.171  0.00  0.00    +0.000 C 
ATOM     29  O   UNL     1      17.089  41.565  41.617  0.00  0.00    +0.000 OA
ATOM     30  OXT UNL     1      18.448  43.357  41.610  0.00  0.00    +0.000 OA
ENDBRANCH   2  28
TORSDOF 8
ENDMDL
MODEL 3
REMARK VINA RESULT:      -7.3      2.981      7.647
REMARK  Name = 323468
REMARK  8 active torsions:
REMARK  status: ('A' for Active; 'I' for Inactive)
REMARK    1  A    between atoms: C_3  and  O_5
REMARK    2  A    between atoms: O_5  and  C_8
REMARK    3  A    between atoms: C_14  and  C_15
REMARK    4  A    between atoms: CA_16  and  N_17
REMARK    5  A    between atoms: CA_16  and  C_18
REMARK    6  A    between atoms: C_19  and  C_23
REMARK    7  A    between atoms: C_23  and  C_24
REMARK    8  A    between atoms: C_24  and  C_25
REMARK                            x       y       z     vdW  Elec       q    Type
REMARK                         _______ _______ _______ _____ _____    ______ ____
ROOT
ATOM      1  C   UNL     1      19.770  41.811  43.643  0.00  0.00    +0.000 C 
ATOM      2  CA  UNL     1      18.521  41.342  43.531  0.00  0.00    +0.000 C 
ENDROOT
BRANCH   1   8
ATOM      3  C   UNL     1      22.394  40.981  46.940  0.00  0.00    +0.000 A 
ATOM      4  C   UNL     1      21.944  42.286  46.746  0.00  0.00    +0.000 A 
ATOM      5  C   UNL     1      22.206  40.049  45.914  0.00  0.00    +0.000 A 
ATOM      6  C   UNL     1      21.173  42.612  45.605  0.00  0.00    +0.000 A 
ATOM      7  C   UNL     1      21.356  40.338  44.852  0.00  0.00    +0.000 A 
ATOM      8  C   UNL     1      20.797  41.613  44.701  0.00  0.00    +0.000 A 
BRANCH   3   9
ATOM      9  O   UNL     1      22.989  40.586  48.137  0.00  0.00    +0.000 OA
BRANCH   9  12
ATOM     10 BR   UNL     1      25.742  40.635  46.512  0.00  0.00    +0.000 Br
ATOM     11  C   UNL     1      25.252  41.527  48.112  0.00  0.00    +0.000 A 
ATOM     12  C   UNL     1      23.967  41.435  48.672  0.00  0.00    +0.000 A 
ATOM     13  C   UNL     1      26.227  42.356  48.701  0.00  0.00    +0.000 A 
ATOM     14  C   UNL     1      23.676  42.260  49.772  0.00  0.00    +0.000 A 
ATOM     15  C   UNL     1      25.916  43.140  49.812  0.00  0.00    +0.000 A 
ATOM     16  C   UNL     1      24.635  43.095  50.342  0.00  0.00    +0.000 A 
ENDBRANCH   9  12
ENDBRANCH   3   9
ENDBRANCH   1   8
BRANCH   2  17
ATOM     17  N   UNL     1      17.878  40.508  44.433  0.00  0.00    +0.000 N 
ATOM     18  C   UNL     1      17.968  39.125  44.484  0.00  0.00    +0.000 C 
ATOM     19  O   UNL     1      18.707  38.405  43.837  0.00  0.00    +0.000 OA
ATOM     20  H   UNL     1      17.300  40.939  45.103  0.00  0.00    +0.000 HD
BRANCH  18  21
ATOM     21  C   UNL     1      17.135  38.488  45.577  0.00  0.00    +0.000 C 
BRANCH  21  22
ATOM     22  C   UNL     1      16.114  39.516  46.079  0.00  0.00    +0.000 C 
BRANCH  22  23
ATOM     23  C   UNL     1      16.694  40.523  47.072  0.00  0.00    +0.000 C 
ATOM     24  C   UNL     1      16.566  41.964  46.572  0.00  0.00    +0.000 C 
ATOM     25  C   UNL     1      18.186  40.335  47.328  0.00  0.00    +0.000 C 
ATOM     26  C   UNL     1      17.757  42.725  47.145  0.00  0.00    +0.000 C 
ATOM     27  C   UNL     1      18.677  41.697  47.789  0.00  0.00    +0.000 C 
ENDBRANCH  22  23
ENDBRANCH  21  22
ENDBRANCH  18  21
ENDBRANCH   2  17
BRANCH   2  28
ATOM     28  C   UNL     1      17.771  41.804  42.291  0.00  0.00    +0.000 C 
ATOM     29  O   UNL     1      16.816  41.218  41.798  0.00  0.00    +0.000 OA
ATOM     30  OXT UNL     1      18.281  42.922  41.737  0.00  0.00    +0.000 OA
ENDBRANCH   2  28
TORSDOF 8
ENDMDL
MODEL 4
REMARK VINA RESULT:      -6.6      1.626      3.918
REMARK  Name = 323468
REMARK  8 active torsions:
REMARK  status: ('A' for Active; 'I' for Inactive)
REMARK    1  A    between atoms: C_3  and  O_5
REMARK    2  A    between atoms: O_5  and  C_8
REMARK    3  A    between atoms: C_14  and  C_15
REMARK    4  A    between atoms: CA_16  and  N_17
REMARK    5  A    between atoms: CA_16  and  C_18
REMARK    6  A    between atoms: C_19  and  C_23
REMARK    7  A    between atoms: C_23  and  C_24
REMARK    8  A    between atoms: C_24  and  C_25
REMARK                            x       y       z     vdW  Elec       q    Type
REMARK                         _______ _______ _______ _____ _____    ______ ____
ROOT
ATOM      1  C   UNL     1      25.403  40.647  46.915  0.00  0.00    +0.000 C 
ATOM      2  CA  UNL     1      25.170  41.552  47.874  0.00  0.00    +0.000 C 
ENDROOT
BRANCH   1   8
ATOM      3  C   UNL     1      22.457  39.254  44.117  0.00  0.00    +0.000 A 
ATOM      4  C   UNL     1      22.977  38.360  45.053  0.00  0.00    +0.000 A 
ATOM      5  C   UNL     1      23.099  40.483  43.938  0.00  0.00    +0.000 A 
ATOM      6  C   UNL     1      24.029  38.759  45.911  0.00  0.00    +0.000 A 
ATOM      7  C   UNL     1      24.054  40.915  44.852  0.00  0.00    +0.000 A 
ATOM      8  C   UNL     1      24.507  40.073  45.875  0.00  0.00    +0.000 A 
BRANCH   3   9
ATOM      9  O   UNL     1      21.304  38.960  43.393  0.00  0.00    +0.000 OA
BRANCH   9  12
ATOM     10 BR   UNL     1      18.404  37.834  44.127  0.00  0.00    +0.000 Br
ATOM     11  C   UNL     1      18.947  39.584  43.639  0.00  0.00    +0.000 A 
ATOM     12  C   UNL     1      20.288  39.924  43.394  0.00  0.00    +0.000 A 
ATOM     13  C   UNL     1      17.941  40.569  43.589  0.00  0.00    +0.000 A 
ATOM     14  C   UNL     1      20.587  41.282  43.190  0.00  0.00    +0.000 A 
ATOM     15  C   UNL     1      18.267  41.905  43.353  0.00  0.00    +0.000 A 
ATOM     16  C   UNL     1      19.594  42.260  43.162  0.00  0.00    +0.000 A 
ENDBRANCH   9  12
ENDBRANCH   3   9
ENDBRANCH   1   8
BRANCH   2  17
ATOM     17  N   UNL     1      23.966  42.197  48.113  0.00  0.00    +0.000 N 
ATOM     18  C   UNL     1      22.710  41.609  48.145  0.00  0.00    +0.000 C 
ATOM     19  O   UNL     1      22.444  40.422  48.091  0.00  0.00    +0.000 OA
ATOM     20  H   UNL     1      24.006  43.167  48.274  0.00  0.00    +0.000 HD
BRANCH  18  21
ATOM     21  C   UNL     1      21.579  42.579  48.417  0.00  0.00    +0.000 C 
BRANCH  21  22
ATOM     22  C   UNL     1      20.668  42.630  47.184  0.00  0.00    +0.000 C 
BRANCH  22  23
ATOM     23  C   UNL     1      19.179  42.536  47.517  0.00  0.00    +0.000 C 
ATOM     24  C   UNL     1      18.600  41.160  47.180  0.00  0.00    +0.000 C 
ATOM     25  C   UNL     1      18.317  43.519  46.733  0.00  0.00    +0.000 C 
ATOM     26  C   UNL     1      17.141  41.387  46.802  0.00  0.00    +0.000 C 
ATOM     27  C   UNL     1      16.932  42.894  46.713  0.00  0.00    +0.000 C 
ENDBRANCH  22  23
ENDBRANCH  21  22
ENDBRANCH  18  21
ENDBRANCH   2  17
BRANCH   2  28
ATOM     28  C   UNL     1      26.361  41.858  48.770  0.00  0.00    +0.000 C 
ATOM     29  O   UNL     1      27.448  41.299  48.695  0.00  0.00    +0.000 OA
ATOM     30  OXT UNL     1      26.105  42.790  49.708  0.00  0.00    +0.000 OA
ENDBRANCH   2  28
TORSDOF 8
ENDMDL
MODEL 5
REMARK VINA RESULT:      -6.5      2.923      7.236
REMARK  Name = 323468
REMARK  8 active torsions:
REMARK  status: ('A' for Active; 'I' for Inactive)
REMARK    1  A    between atoms: C_3  and  O_5
REMARK    2  A    between atoms: O_5  and  C_8
REMARK    3  A    between atoms: C_14  and  C_15
REMARK    4  A    between atoms: CA_16  and  N_17
REMARK    5  A    between atoms: CA_16  and  C_18
REMARK    6  A    between atoms: C_19  and  C_23
REMARK    7  A    between atoms: C_23  and  C_24
REMARK    8  A    between atoms: C_24  and  C_25
REMARK                            x       y       z     vdW  Elec       q    Type
REMARK                         _______ _______ _______ _____ _____    ______ ____
ROOT
ATOM      1  C   UNL     1      17.823  39.831  47.050  0.00  0.00    +0.000 C 
ATOM      2  CA  UNL     1      17.012  39.567  46.018  0.00  0.00    +0.000 C 
ENDROOT
BRANCH   1   8
ATOM      3  C   UNL     1      21.411  42.083  47.759  0.00  0.00    +0.000 A 
ATOM      4  C   UNL     1      20.184  42.745  47.772  0.00  0.00    +0.000 A 
ATOM      5  C   UNL     1      21.464  40.781  47.250  0.00  0.00    +0.000 A 
ATOM      6  C   UNL     1      18.997  42.053  47.429  0.00  0.00    +0.000 A 
ATOM      7  C   UNL     1      20.291  40.070  47.023  0.00  0.00    +0.000 A 
ATOM      8  C   UNL     1      19.038  40.684  47.144  0.00  0.00    +0.000 A 
BRANCH   3   9
ATOM      9  O   UNL     1      22.564  42.677  48.269  0.00  0.00    +0.000 OA
BRANCH   9  12
ATOM     10 BR   UNL     1      24.842  43.044  50.481  0.00  0.00    +0.000 Br
ATOM     11  C   UNL     1      24.907  42.188  48.789  0.00  0.00    +0.000 A 
ATOM     12  C   UNL     1      23.786  42.072  47.952  0.00  0.00    +0.000 A 
ATOM     13  C   UNL     1      26.136  41.605  48.421  0.00  0.00    +0.000 A 
ATOM     14  C   UNL     1      23.919  41.285  46.794  0.00  0.00    +0.000 A 
ATOM     15  C   UNL     1      26.243  40.856  47.249  0.00  0.00    +0.000 A 
ATOM     16  C   UNL     1      25.128  40.691  46.440  0.00  0.00    +0.000 A 
ENDBRANCH   9  12
ENDBRANCH   3   9
ENDBRANCH   1   8
BRANCH   2  17
ATOM     17  N   UNL     1      17.135  40.072  44.733  0.00  0.00    +0.000 N 
ATOM     18  C   UNL     1      16.849  41.367  44.327  0.00  0.00    +0.000 C 
ATOM     19  O   UNL     1      16.557  42.318  45.030  0.00  0.00    +0.000 OA
ATOM     20  H   UNL     1      17.456  39.451  44.040  0.00  0.00    +0.000 HD
BRANCH  18  21
ATOM     21  C   UNL     1      17.069  41.617  42.850  0.00  0.00    +0.000 C 
BRANCH  21  22
ATOM     22  C   UNL     1      18.534  42.013  42.630  0.00  0.00    +0.000 C 
BRANCH  22  23
ATOM     23  C   UNL     1      19.515  41.261  43.529  0.00  0.00    +0.000 C 
ATOM     24  C   UNL     1      20.855  41.989  43.655  0.00  0.00    +0.000 C 
ATOM     25  C   UNL     1      19.878  39.874  43.008  0.00  0.00    +0.000 C 
ATOM     26  C   UNL     1      21.915  40.911  43.851  0.00  0.00    +0.000 C 
ATOM     27  C   UNL     1      21.231  39.568  43.626  0.00  0.00    +0.000 C 
ENDBRANCH  22  23
ENDBRANCH  21  22
ENDBRANCH  18  21
ENDBRANCH   2  17
BRANCH   2  28
ATOM     28  C   UNL     1      15.874  38.606  46.327  0.00  0.00    +0.000 C 
ATOM     29  O   UNL     1      15.693  37.537  45.757  0.00  0.00    +0.000 OA
ATOM     30  OXT UNL     1      15.029  39.057  47.276  0.00  0.00    +0.000 OA
ENDBRANCH   2  28
TORSDOF 8
ENDMDL
MODEL 6
REMARK VINA RESULT:      -6.4      3.348      7.210
REMARK  Name = 323468
REMARK  8 active torsions:
REMARK  status: ('A' for Active; 'I' for Inactive)
REMARK    1  A    between atoms: C_3  and  O_5
REMARK    2  A    between atoms: O_5  and  C_8
REMARK    3  A    between atoms: C_14  and  C_15
REMARK    4  A    between atoms: CA_16  and  N_17
REMARK    5  A    between atoms: CA_16  and  C_18
REMARK    6  A    between atoms: C_19  and  C_23
REMARK    7  A    between atoms: C_23  and  C_24
REMARK    8  A    between atoms: C_24  and  C_25
REMARK                            x       y       z     vdW  Elec       q    Type
REMARK                         _______ _______ _______ _____ _____    ______ ____
ROOT
ATOM      1  C   UNL     1      17.851  42.349  43.509  0.00  0.00    +0.000 C 
ATOM      2  CA  UNL     1      17.453  41.176  43.000  0.00  0.00    +0.000 C 
ENDROOT
BRANCH   1   8
ATOM      3  C   UNL     1      20.458  42.798  46.892  0.00  0.00    +0.000 A 
ATOM      4  C   UNL     1      19.080  42.769  47.100  0.00  0.00    +0.000 A 
ATOM      5  C   UNL     1      20.935  42.957  45.587  0.00  0.00    +0.000 A 
ATOM      6  C   UNL     1      18.193  42.737  45.997  0.00  0.00    +0.000 A 
ATOM      7  C   UNL     1      20.074  42.813  44.505  0.00  0.00    +0.000 A 
ATOM      8  C   UNL     1      18.694  42.664  44.693  0.00  0.00    +0.000 A 
BRANCH   3   9
ATOM      9  O   UNL     1      21.357  42.640  47.946  0.00  0.00    +0.000 OA
BRANCH   9  12
ATOM     10 BR   UNL     1      23.873  42.803  49.910  0.00  0.00    +0.000 Br
ATOM     11  C   UNL     1      23.390  41.468  48.652  0.00  0.00    +0.000 A 
ATOM     12  C   UNL     1      22.208  41.529  47.895  0.00  0.00    +0.000 A 
ATOM     13  C   UNL     1      24.248  40.356  48.545  0.00  0.00    +0.000 A 
ATOM     14  C   UNL     1      21.881  40.410  47.109  0.00  0.00    +0.000 A 
ATOM     15  C   UNL     1      23.910  39.274  47.733  0.00  0.00    +0.000 A 
ATOM     16  C   UNL     1      22.720  39.301  47.020  0.00  0.00    +0.000 A 
ENDBRANCH   9  12
ENDBRANCH   3   9
ENDBRANCH   1   8
BRANCH   2  17
ATOM     17  N   UNL     1      17.769  39.921  43.496  0.00  0.00    +0.000 N 
ATOM     18  C   UNL     1      19.018  39.319  43.475  0.00  0.00    +0.000 C 
ATOM     19  O   UNL     1      20.076  39.815  43.133  0.00  0.00    +0.000 OA
ATOM     20  H   UNL     1      17.035  39.405  43.903  0.00  0.00    +0.000 HD
BRANCH  18  21
ATOM     21  C   UNL     1      19.049  37.931  44.082  0.00  0.00    +0.000 C 
BRANCH  21  22
ATOM     22  C   UNL     1      17.618  37.526  44.456  0.00  0.00    +0.000 C 
BRANCH  22  23
ATOM     23  C   UNL     1      17.232  37.889  45.889  0.00  0.00    +0.000 C 
ATOM     24  C   UNL     1      15.759  38.290  46.004  0.00  0.00    +0.000 C 
ATOM     25  C   UNL     1      18.000  39.085  46.442  0.00  0.00    +0.000 C 
ATOM     26  C   UNL     1      15.676  39.306  47.138  0.00  0.00    +0.000 C 
ATOM     27  C   UNL     1      17.106  39.653  47.531  0.00  0.00    +0.000 C 
ENDBRANCH  22  23
ENDBRANCH  21  22
ENDBRANCH  18  21
ENDBRANCH   2  17
BRANCH   2  28
ATOM     28  C   UNL     1      16.559  41.280  41.774  0.00  0.00    +0.000 C 
ATOM     29  O   UNL     1      15.417  40.841  41.706  0.00  0.00    +0.000 OA
ATOM     30  OXT UNL     1      17.154  41.874  40.721  0.00  0.00    +0.000 OA
ENDBRANCH   2  28
TORSDOF 8
ENDMDL
MODEL 7
REMARK VINA RESULT:      -6.4      1.842      4.073
REMARK  Name = 323468
REMARK  8 active torsions:
REMARK  status: ('A' for Active; 'I' for Inactive)
REMARK    1  A    between atoms: C_3  and  O_5
REMARK    2  A    between atoms: O_5  and  C_8
REMARK    3  A    between atoms: C_14  and  C_15
REMARK    4  A    between atoms: CA_16  and  N_17
REMARK    5  A    between atoms: CA_16  and  C_18
REMARK    6  A    between atoms: C_19  and  C_23
REMARK    7  A    between atoms: C_23  and  C_24
REMARK    8  A    between atoms: C_24  and  C_25
REMARK                            x       y       z     vdW  Elec       q    Type
REMARK                         _______ _______ _______ _____ _____    ______ ____
ROOT
ATOM      1  C   UNL     1      24.153  40.742  45.896  0.00  0.00    +0.000 C 
ATOM      2  CA  UNL     1      24.091  41.505  46.994  0.00  0.00    +0.000 C 
ENDROOT
BRANCH   1   8
ATOM      3  C   UNL     1      20.794  39.684  43.435  0.00  0.00    +0.000 A 
ATOM      4  C   UNL     1      21.703  38.692  43.804  0.00  0.00    +0.000 A 
ATOM      5  C   UNL     1      21.146  41.022  43.642  0.00  0.00    +0.000 A 
ATOM      6  C   UNL     1      22.878  39.030  44.516  0.00  0.00    +0.000 A 
ATOM      7  C   UNL     1      22.239  41.345  44.438  0.00  0.00    +0.000 A 
ATOM      8  C   UNL     1      23.102  40.351  44.918  0.00  0.00    +0.000 A 
BRANCH   3   9
ATOM      9  O   UNL     1      19.546  39.367  42.904  0.00  0.00    +0.000 OA
BRANCH   9  12
ATOM     10 BR   UNL     1      17.012  41.220  42.300  0.00  0.00    +0.000 Br
ATOM     11  C   UNL     1      17.324  40.003  43.720  0.00  0.00    +0.000 A 
ATOM     12  C   UNL     1      18.488  39.220  43.809  0.00  0.00    +0.000 A 
ATOM     13  C   UNL     1      16.296  39.863  44.673  0.00  0.00    +0.000 A 
ATOM     14  C   UNL     1      18.539  38.246  44.821  0.00  0.00    +0.000 A 
ATOM     15  C   UNL     1      16.390  38.906  45.684  0.00  0.00    +0.000 A 
ATOM     16  C   UNL     1      17.512  38.092  45.751  0.00  0.00    +0.000 A 
ENDBRANCH   9  12
ENDBRANCH   3   9
ENDBRANCH   1   8
BRANCH   2  17
ATOM     17  N   UNL     1      22.961  42.143  47.483  0.00  0.00    +0.000 N 
ATOM     18  C   UNL     1      21.715  41.569  47.687  0.00  0.00    +0.000 C 
ATOM     19  O   UNL     1      21.416  40.393  47.593  0.00  0.00    +0.000 OA
ATOM     20  H   UNL     1      23.051  43.098  47.706  0.00  0.00    +0.000 HD
BRANCH  18  21
ATOM     21  C   UNL     1      20.670  42.527  48.220  0.00  0.00    +0.000 C 
BRANCH  21  22
ATOM     22  C   UNL     1      19.287  42.056  47.754  0.00  0.00    +0.000 C 
BRANCH  22  23
ATOM     23  C   UNL     1      18.572  43.054  46.845  0.00  0.00    +0.000 C 
ATOM     24  C   UNL     1      17.052  42.878  46.879  0.00  0.00    +0.000 C 
ATOM     25  C   UNL     1      18.943  42.910  45.372  0.00  0.00    +0.000 C 
ATOM     26  C   UNL     1      16.540  43.286  45.503  0.00  0.00    +0.000 C 
ATOM     27  C   UNL     1      17.761  43.489  44.614  0.00  0.00    +0.000 C 
ENDBRANCH  22  23
ENDBRANCH  21  22
ENDBRANCH  18  21
ENDBRANCH   2  17
BRANCH   2  28
ATOM     28  C   UNL     1      25.402  41.644  47.753  0.00  0.00    +0.000 C 
ATOM     29  O   UNL     1      26.450  41.094  47.436  0.00  0.00    +0.000 OA
ATOM     30  OXT UNL     1      25.308  42.409  48.858  0.00  0.00    +0.000 OA
ENDBRANCH   2  28
TORSDOF 8
ENDMDL
MODEL 8
REMARK VINA RESULT:      -6.2      2.224      4.947
REMARK  Name = 323468
REMARK  8 active torsions:
REMARK  status: ('A' for Active; 'I' for Inactive)
REMARK    1  A    between atoms: C_3  and  O_5
REMARK    2  A    between atoms: O_5  and  C_8
REMARK    3  A    between atoms: C_14  and  C_15
REMARK    4  A    between atoms: CA_16  and  N_17
REMARK    5  A    between atoms: CA_16  and  C_18
REMARK    6  A    between atoms: C_19  and  C_23
REMARK    7  A    between atoms: C_23  and  C_24
REMARK    8  A    between atoms: C_24  and  C_25
REMARK                            x       y       z     vdW  Elec       q    Type
REMARK                         _______ _______ _______ _____ _____    ______ ____
ROOT
ATOM      1  C   UNL     1      22.989  40.493  43.847  0.00  0.00    +0.000 C 
ATOM      2  CA  UNL     1      23.621  40.759  44.997  0.00  0.00    +0.000 C 
ENDROOT
BRANCH   1   8
ATOM      3  C   UNL     1      18.721  40.319  43.396  0.00  0.00    +0.000 A 
ATOM      4  C   UNL     1      19.440  39.128  43.493  0.00  0.00    +0.000 A 
ATOM      5  C   UNL     1      19.423  41.508  43.174  0.00  0.00    +0.000 A 
ATOM      6  C   UNL     1      20.855  39.150  43.527  0.00  0.00    +0.000 A 
ATOM      7  C   UNL     1      20.805  41.543  43.320  0.00  0.00    +0.000 A 
ATOM      8  C   UNL     1      21.539  40.370  43.535  0.00  0.00    +0.000 A 
BRANCH   3   9
ATOM      9  O   UNL     1      17.336  40.347  43.550  0.00  0.00    +0.000 OA
BRANCH   9  12
ATOM     10 BR   UNL     1      16.878  42.666  45.703  0.00  0.00    +0.000 Br
ATOM     11  C   UNL     1      16.618  40.793  45.850  0.00  0.00    +0.000 A 
ATOM     12  C   UNL     1      16.823  39.910  44.777  0.00  0.00    +0.000 A 
ATOM     13  C   UNL     1      16.142  40.314  47.087  0.00  0.00    +0.000 A 
ATOM     14  C   UNL     1      16.452  38.566  44.962  0.00  0.00    +0.000 A 
ATOM     15  C   UNL     1      15.812  38.968  47.247  0.00  0.00    +0.000 A 
ATOM     16  C   UNL     1      15.961  38.097  46.179  0.00  0.00    +0.000 A 
ENDBRANCH   9  12
ENDBRANCH   3   9
ENDBRANCH   1   8
BRANCH   2  17
ATOM     17  N   UNL     1      23.020  41.001  46.223  0.00  0.00    +0.000 N 
ATOM     18  C   UNL     1      22.261  42.112  46.562  0.00  0.00    +0.000 C 
ATOM     19  O   UNL     1      21.887  43.008  45.827  0.00  0.00    +0.000 OA
ATOM     20  H   UNL     1      23.144  40.318  46.921  0.00  0.00    +0.000 HD
BRANCH  18  21
ATOM     21  C   UNL     1      21.747  42.100  47.987  0.00  0.00    +0.000 C 
BRANCH  21  22
ATOM     22  C   UNL     1      22.842  41.537  48.901  0.00  0.00    +0.000 C 
BRANCH  22  23
ATOM     23  C   UNL     1      23.918  42.558  49.269  0.00  0.00    +0.000 C 
ATOM     24  C   UNL     1      25.293  42.167  48.721  0.00  0.00    +0.000 C 
ATOM     25  C   UNL     1      24.131  42.704  50.772  0.00  0.00    +0.000 C 
ATOM     26  C   UNL     1      26.321  42.713  49.706  0.00  0.00    +0.000 C 
ATOM     27  C   UNL     1      25.550  43.225  50.916  0.00  0.00    +0.000 C 
ENDBRANCH  22  23
ENDBRANCH  21  22
ENDBRANCH  18  21
ENDBRANCH   2  17
BRANCH   2  28
ATOM     28  C   UNL     1      25.139  40.771  44.906  0.00  0.00    +0.000 C 
ATOM     29  O   UNL     1      25.775  41.207  43.954  0.00  0.00    +0.000 OA
ATOM     30  OXT UNL     1      25.749  40.209  45.968  0.00  0.00    +0.000 OA
ENDBRANCH   2  28
TORSDOF 8
ENDMDL
MODEL 9
REMARK VINA RESULT:      -5.8      1.302      2.184
REMARK  Name = 323468
REMARK  8 active torsions:
REMARK  status: ('A' for Active; 'I' for Inactive)
REMARK    1  A    between atoms: C_3  and  O_5
REMARK    2  A    between atoms: O_5  and  C_8
REMARK    3  A    between atoms: C_14  and  C_15
REMARK    4  A    between atoms: CA_16  and  N_17
REMARK    5  A    between atoms: CA_16  and  C_18
REMARK    6  A    between atoms: C_19  and  C_23
REMARK    7  A    between atoms: C_23  and  C_24
REMARK    8  A    between atoms: C_24  and  C_25
REMARK                            x       y       z     vdW  Elec       q    Type
REMARK                         _______ _______ _______ _____ _____    ______ ____
ROOT
ATOM      1  C   UNL     1      23.070  42.144  48.440  0.00  0.00    +0.000 C 
ATOM      2  CA  UNL     1      24.200  41.777  47.822  0.00  0.00    +0.000 C 
ENDROOT
BRANCH   1   8
ATOM      3  C   UNL     1      19.107  41.723  46.838  0.00  0.00    +0.000 A 
ATOM      4  C   UNL     1      19.430  42.878  47.550  0.00  0.00    +0.000 A 
ATOM      5  C   UNL     1      19.980  40.632  46.903  0.00  0.00    +0.000 A 
ATOM      6  C   UNL     1      20.689  42.995  48.186  0.00  0.00    +0.000 A 
ATOM      7  C   UNL     1      21.257  40.786  47.430  0.00  0.00    +0.000 A 
ATOM      8  C   UNL     1      21.644  41.983  48.047  0.00  0.00    +0.000 A 
BRANCH   3   9
ATOM      9  O   UNL     1      17.962  41.651  46.048  0.00  0.00    +0.000 OA
BRANCH   9  12
ATOM     10 BR   UNL     1      17.208  40.627  43.115  0.00  0.00    +0.000 Br
ATOM     11  C   UNL     1      16.832  39.863  44.810  0.00  0.00    +0.000 A 
ATOM     12  C   UNL     1      17.286  40.425  46.015  0.00  0.00    +0.000 A 
ATOM     13  C   UNL     1      16.116  38.650  44.815  0.00  0.00    +0.000 A 
ATOM     14  C   UNL     1      17.076  39.690  47.194  0.00  0.00    +0.000 A 
ATOM     15  C   UNL     1      15.897  37.959  46.007  0.00  0.00    +0.000 A 
ATOM     16  C   UNL     1      16.386  38.479  47.196  0.00  0.00    +0.000 A 
ENDBRANCH   9  12
ENDBRANCH   3   9
ENDBRANCH   1   8
BRANCH   2  17
ATOM     17  N   UNL     1      24.287  41.119  46.604  0.00  0.00    +0.000 N 
ATOM     18  C   UNL     1      24.249  39.747  46.407  0.00  0.00    +0.000 C 
ATOM     19  O   UNL     1      24.014  38.884  47.233  0.00  0.00    +0.000 OA
ATOM     20  H   UNL     1      24.389  41.680  45.802  0.00  0.00    +0.000 HD
BRANCH  18  21
ATOM     21  C   UNL     1      24.384  39.325  44.958  0.00  0.00    +0.000 C 
BRANCH  21  22
ATOM     22  C   UNL     1      23.057  38.706  44.500  0.00  0.00    +0.000 C 
BRANCH  22  23
ATOM     23  C   UNL     1      22.230  39.624  43.601  0.00  0.00    +0.000 C 
ATOM     24  C   UNL     1      22.322  41.090  44.034  0.00  0.00    +0.000 C 
ATOM     25  C   UNL     1      20.738  39.310  43.618  0.00  0.00    +0.000 C 
ATOM     26  C   UNL     1      20.990  41.733  43.663  0.00  0.00    +0.000 C 
ATOM     27  C   UNL     1      20.061  40.610  43.218  0.00  0.00    +0.000 C 
ENDBRANCH  22  23
ENDBRANCH  21  22
ENDBRANCH  18  21
ENDBRANCH   2  17
BRANCH   2  28
ATOM     28  C   UNL     1      25.481  42.153  48.551  0.00  0.00    +0.000 C 
ATOM     29  O   UNL     1      25.558  43.010  49.423  0.00  0.00    +0.000 OA
ATOM     30  OXT UNL     1      26.565  41.479  48.120  0.00  0.00    +0.000 OA
ENDBRANCH   2  28
TORSDOF 8
ENDMDL
