MODEL 1
REMARK VINA RESULT:      -9.0      0.000      0.000
REMARK  Name = 323412
REMARK  8 active torsions:
REMARK  status: ('A' for Active; 'I' for Inactive)
REMARK    1  A    between atoms: C_3  and  O_5
REMARK    2  A    between atoms: O_5  and  C_8
REMARK    3  A    between atoms: C_14  and  C_15
REMARK    4  A    between atoms: CA_16  and  N_17
REMARK    5  A    between atoms: CA_16  and  C_18
REMARK    6  A    between atoms: C_19  and  C_23
REMARK    7  A    between atoms: C_23  and  C_24
REMARK    8  A    between atoms: C_24  and  C_25
REMARK                            x       y       z     vdW  Elec       q    Type
REMARK                         _______ _______ _______ _____ _____    ______ ____
ROOT
ATOM      1  C   UNL     1      21.872  41.381  47.040  0.00  0.00    +0.000 A 
ATOM      2  C   UNL     1      21.001  42.461  46.913  0.00  0.00    +0.000 A 
ATOM      3  C   UNL     1      22.157  40.588  45.924  0.00  0.00    +0.000 A 
ATOM      4  C   UNL     1      20.217  42.575  45.759  0.00  0.00    +0.000 A 
ATOM      5  C   UNL     1      21.409  40.733  44.754  0.00  0.00    +0.000 A 
ATOM      6  C   UNL     1      20.372  41.672  44.704  0.00  0.00    +0.000 A 
ENDROOT
BRANCH   6   7
ATOM      7  C   UNL     1      19.327  41.521  43.686  0.00  0.00    +0.000 C 
ATOM      8  CA  UNL     1      18.190  40.802  43.708  0.00  0.00    +0.000 C 
BRANCH   8   9
ATOM      9  N   UNL     1      17.814  39.904  44.687  0.00  0.00    +0.000 N 
ATOM     10  C   UNL     1      16.993  40.197  45.759  0.00  0.00    +0.000 C 
ATOM     11  O   UNL     1      16.564  41.312  46.042  0.00  0.00    +0.000 OA
ATOM     12  H   UNL     1      18.156  38.984  44.616  0.00  0.00    +0.000 HD
BRANCH  10  13
ATOM     13  C   UNL     1      16.684  39.002  46.641  0.00  0.00    +0.000 C 
BRANCH  13  14
ATOM     14  C   UNL     1      16.030  37.899  45.829  0.00  0.00    +0.000 C 
BRANCH  14  15
ATOM     15  C   UNL     1      17.017  36.808  45.504  0.00  0.00    +0.000 C 
ATOM     16  O   UNL     1      17.077  35.745  46.109  0.00  0.00    +0.000 OA
ATOM     17  O   UNL     1      17.814  37.096  44.458  0.00  0.00    +0.000 OA
ENDBRANCH  14  15
ENDBRANCH  13  14
ENDBRANCH  10  13
ENDBRANCH   8   9
BRANCH   8  18
ATOM     18  C   UNL     1      17.222  41.096  42.595  0.00  0.00    +0.000 C 
ATOM     19  O   UNL     1      16.156  40.533  42.412  0.00  0.00    +0.000 OA
ATOM     20  OXT UNL     1      17.666  42.092  41.793  0.00  0.00    +0.000 OA
ENDBRANCH   8  18
ENDBRANCH   6   7
BRANCH   1  21
ATOM     21  O   UNL     1      22.483  40.990  48.203  0.00  0.00    +0.000 OA
BRANCH  21  24
ATOM     22  I   UNL     1      25.574  40.585  46.368  0.00  0.00    +0.000 I 
ATOM     23  C   UNL     1      24.963  41.474  48.183  0.00  0.00    +0.000 A 
ATOM     24  C   UNL     1      23.646  41.574  48.662  0.00  0.00    +0.000 A 
ATOM     25  C   UNL     1      26.001  42.151  48.850  0.00  0.00    +0.000 A 
ATOM     26  C   UNL     1      23.390  42.489  49.700  0.00  0.00    +0.000 A 
ATOM     27  C   UNL     1      25.729  43.026  49.900  0.00  0.00    +0.000 A 
ATOM     28  C   UNL     1      24.415  43.225  50.300  0.00  0.00    +0.000 A 
ENDBRANCH  21  24
ENDBRANCH   1  21
TORSDOF 8
ENDMDL
MODEL 2
REMARK VINA RESULT:      -8.2      3.172      7.277
REMARK  Name = 323412
REMARK  8 active torsions:
REMARK  status: ('A' for Active; 'I' for Inactive)
REMARK    1  A    between atoms: C_3  and  O_5
REMARK    2  A    between atoms: O_5  and  C_8
REMARK    3  A    between atoms: C_14  and  C_15
REMARK    4  A    between atoms: CA_16  and  N_17
REMARK    5  A    between atoms: CA_16  and  C_18
REMARK    6  A    between atoms: C_19  and  C_23
REMARK    7  A    between atoms: C_23  and  C_24
REMARK    8  A    between atoms: C_24  and  C_25
REMARK                            x       y       z     vdW  Elec       q    Type
REMARK                         _______ _______ _______ _____ _____    ______ ____
ROOT
ATOM      1  C   UNL     1      18.909  42.835  46.448  0.00  0.00    +0.000 A 
ATOM      2  C   UNL     1      19.944  43.326  45.655  0.00  0.00    +0.000 A 
ATOM      3  C   UNL     1      19.168  42.465  47.771  0.00  0.00    +0.000 A 
ATOM      4  C   UNL     1      21.266  43.187  46.093  0.00  0.00    +0.000 A 
ATOM      5  C   UNL     1      20.485  42.372  48.226  0.00  0.00    +0.000 A 
ATOM      6  C   UNL     1      21.542  42.648  47.352  0.00  0.00    +0.000 A 
ENDROOT
BRANCH   6   7
ATOM      7  C   UNL     1      22.878  42.132  47.671  0.00  0.00    +0.000 C 
ATOM      8  CA  UNL     1      23.722  41.391  46.930  0.00  0.00    +0.000 C 
BRANCH   8   9
ATOM      9  N   UNL     1      23.442  40.819  45.705  0.00  0.00    +0.000 N 
ATOM     10  C   UNL     1      23.391  39.461  45.458  0.00  0.00    +0.000 C 
ATOM     11  O   UNL     1      23.679  38.580  46.263  0.00  0.00    +0.000 OA
ATOM     12  H   UNL     1      23.266  41.425  44.950  0.00  0.00    +0.000 HD
BRANCH  10  13
ATOM     13  C   UNL     1      22.990  39.110  44.036  0.00  0.00    +0.000 C 
BRANCH  13  14
ATOM     14  C   UNL     1      22.004  40.130  43.498  0.00  0.00    +0.000 C 
BRANCH  14  15
ATOM     15  C   UNL     1      20.595  39.794  43.913  0.00  0.00    +0.000 C 
ATOM     16  O   UNL     1      19.748  39.353  43.146  0.00  0.00    +0.000 OA
ATOM     17  O   UNL     1      20.356  39.993  45.223  0.00  0.00    +0.000 OA
ENDBRANCH  14  15
ENDBRANCH  13  14
ENDBRANCH  10  13
ENDBRANCH   8   9
BRANCH   8  18
ATOM     18  C   UNL     1      25.119  41.273  47.474  0.00  0.00    +0.000 C 
ATOM     19  O   UNL     1      26.081  40.824  46.873  0.00  0.00    +0.000 OA
ATOM     20  OXT UNL     1      25.207  41.740  48.742  0.00  0.00    +0.000 OA
ENDBRANCH   8  18
ENDBRANCH   6   7
BRANCH   1  21
ATOM     21  O   UNL     1      17.615  42.650  46.033  0.00  0.00    +0.000 OA
BRANCH  21  24
ATOM     22  I   UNL     1      16.435  39.337  46.881  0.00  0.00    +0.000 I 
ATOM     23  C   UNL     1      16.897  40.407  45.120  0.00  0.00    +0.000 A 
ATOM     24  C   UNL     1      17.276  41.757  45.038  0.00  0.00    +0.000 A 
ATOM     25  C   UNL     1      16.625  39.685  43.942  0.00  0.00    +0.000 A 
ATOM     26  C   UNL     1      17.207  42.386  43.781  0.00  0.00    +0.000 A 
ATOM     27  C   UNL     1      16.598  40.321  42.702  0.00  0.00    +0.000 A 
ATOM     28  C   UNL     1      16.851  41.684  42.627  0.00  0.00    +0.000 A 
ENDBRANCH  21  24
ENDBRANCH   1  21
TORSDOF 8
ENDMDL
MODEL 3
REMARK VINA RESULT:      -8.0      2.993      7.346
REMARK  Name = 323412
REMARK  8 active torsions:
REMARK  status: ('A' for Active; 'I' for Inactive)
REMARK    1  A    between atoms: C_3  and  O_5
REMARK    2  A    between atoms: O_5  and  C_8
REMARK    3  A    between atoms: C_14  and  C_15
REMARK    4  A    between atoms: CA_16  and  N_17
REMARK    5  A    between atoms: CA_16  and  C_18
REMARK    6  A    between atoms: C_19  and  C_23
REMARK    7  A    between atoms: C_23  and  C_24
REMARK    8  A    between atoms: C_24  and  C_25
REMARK                            x       y       z     vdW  Elec       q    Type
REMARK                         _______ _______ _______ _____ _____    ______ ____
ROOT
ATOM      1  C   UNL     1      18.576  42.418  46.692  0.00  0.00    +0.000 A 
ATOM      2  C   UNL     1      19.637  42.510  45.794  0.00  0.00    +0.000 A 
ATOM      3  C   UNL     1      18.798  42.658  48.051  0.00  0.00    +0.000 A 
ATOM      4  C   UNL     1      20.946  42.568  46.287  0.00  0.00    +0.000 A 
ATOM      5  C   UNL     1      20.101  42.764  48.539  0.00  0.00    +0.000 A 
ATOM      6  C   UNL     1      21.184  42.627  47.662  0.00  0.00    +0.000 A 
ENDROOT
BRANCH   6   7
ATOM      7  C   UNL     1      22.503  42.292  48.211  0.00  0.00    +0.000 C 
ATOM      8  CA  UNL     1      23.602  41.818  47.599  0.00  0.00    +0.000 C 
BRANCH   8   9
ATOM      9  N   UNL     1      23.687  41.399  46.287  0.00  0.00    +0.000 N 
ATOM     10  C   UNL     1      23.597  40.087  45.865  0.00  0.00    +0.000 C 
ATOM     11  O   UNL     1      23.524  39.107  46.602  0.00  0.00    +0.000 OA
ATOM     12  H   UNL     1      23.823  42.089  45.598  0.00  0.00    +0.000 HD
BRANCH  10  13
ATOM     13  C   UNL     1      23.651  39.920  44.358  0.00  0.00    +0.000 C 
BRANCH  13  14
ATOM     14  C   UNL     1      22.512  39.037  43.882  0.00  0.00    +0.000 C 
BRANCH  14  15
ATOM     15  C   UNL     1      21.255  39.840  43.673  0.00  0.00    +0.000 C 
ATOM     16  O   UNL     1      21.230  40.927  43.110  0.00  0.00    +0.000 OA
ATOM     17  O   UNL     1      20.145  39.236  44.138  0.00  0.00    +0.000 OA
ENDBRANCH  14  15
ENDBRANCH  13  14
ENDBRANCH  10  13
ENDBRANCH   8   9
BRANCH   8  18
ATOM     18  C   UNL     1      24.860  41.847  48.424  0.00  0.00    +0.000 C 
ATOM     19  O   UNL     1      25.953  41.440  48.070  0.00  0.00    +0.000 OA
ATOM     20  OXT UNL     1      24.649  42.401  49.642  0.00  0.00    +0.000 OA
ENDBRANCH   8  18
ENDBRANCH   6   7
BRANCH   1  21
ATOM     21  O   UNL     1      17.288  42.080  46.362  0.00  0.00    +0.000 OA
BRANCH  21  24
ATOM     22  I   UNL     1      17.343  41.086  42.884  0.00  0.00    +0.000 I 
ATOM     23  C   UNL     1      16.778  40.223  44.727  0.00  0.00    +0.000 A 
ATOM     24  C   UNL     1      16.929  40.798  45.999  0.00  0.00    +0.000 A 
ATOM     25  C   UNL     1      16.366  38.881  44.611  0.00  0.00    +0.000 A 
ATOM     26  C   UNL     1      16.823  39.954  47.121  0.00  0.00    +0.000 A 
ATOM     27  C   UNL     1      16.233  38.073  45.738  0.00  0.00    +0.000 A 
ATOM     28  C   UNL     1      16.500  38.601  46.994  0.00  0.00    +0.000 A 
ENDBRANCH  21  24
ENDBRANCH   1  21
TORSDOF 8
ENDMDL
MODEL 4
REMARK VINA RESULT:      -7.9      3.197      7.650
REMARK  Name = 323412
REMARK  8 active torsions:
REMARK  status: ('A' for Active; 'I' for Inactive)
REMARK    1  A    between atoms: C_3  and  O_5
REMARK    2  A    between atoms: O_5  and  C_8
REMARK    3  A    between atoms: C_14  and  C_15
REMARK    4  A    between atoms: CA_16  and  N_17
REMARK    5  A    between atoms: CA_16  and  C_18
REMARK    6  A    between atoms: C_19  and  C_23
REMARK    7  A    between atoms: C_23  and  C_24
REMARK    8  A    between atoms: C_24  and  C_25
REMARK                            x       y       z     vdW  Elec       q    Type
REMARK                         _______ _______ _______ _____ _____    ______ ____
ROOT
ATOM      1  C   UNL     1      20.129  41.226  45.672  0.00  0.00    +0.000 A 
ATOM      2  C   UNL     1      20.943  42.271  45.239  0.00  0.00    +0.000 A 
ATOM      3  C   UNL     1      20.154  40.842  47.015  0.00  0.00    +0.000 A 
ATOM      4  C   UNL     1      21.963  42.735  46.078  0.00  0.00    +0.000 A 
ATOM      5  C   UNL     1      21.142  41.340  47.867  0.00  0.00    +0.000 A 
ATOM      6  C   UNL     1      22.107  42.223  47.370  0.00  0.00    +0.000 A 
ENDROOT
BRANCH   6   7
ATOM      7  C   UNL     1      23.365  42.387  48.107  0.00  0.00    +0.000 C 
ATOM      8  CA  UNL     1      24.555  41.784  47.937  0.00  0.00    +0.000 C 
BRANCH   8   9
ATOM      9  N   UNL     1      24.822  40.735  47.080  0.00  0.00    +0.000 N 
ATOM     10  C   UNL     1      24.278  39.469  47.181  0.00  0.00    +0.000 C 
ATOM     11  O   UNL     1      23.561  39.075  48.096  0.00  0.00    +0.000 OA
ATOM     12  H   UNL     1      25.448  40.902  46.339  0.00  0.00    +0.000 HD
BRANCH  10  13
ATOM     13  C   UNL     1      24.689  38.532  46.061  0.00  0.00    +0.000 C 
BRANCH  13  14
ATOM     14  C   UNL     1      23.489  38.170  45.206  0.00  0.00    +0.000 C 
BRANCH  14  15
ATOM     15  C   UNL     1      23.071  39.330  44.340  0.00  0.00    +0.000 C 
ATOM     16  O   UNL     1      23.726  40.357  44.219  0.00  0.00    +0.000 OA
ATOM     17  O   UNL     1      21.915  39.122  43.681  0.00  0.00    +0.000 OA
ENDBRANCH  14  15
ENDBRANCH  13  14
ENDBRANCH  10  13
ENDBRANCH   8   9
BRANCH   8  18
ATOM     18  C   UNL     1      25.699  42.394  48.700  0.00  0.00    +0.000 C 
ATOM     19  O   UNL     1      25.599  43.077  49.705  0.00  0.00    +0.000 OA
ATOM     20  OXT UNL     1      26.895  42.089  48.142  0.00  0.00    +0.000 OA
ENDBRANCH   8  18
ENDBRANCH   6   7
BRANCH   1  21
ATOM     21  O   UNL     1      19.291  40.494  44.871  0.00  0.00    +0.000 OA
BRANCH  21  24
ATOM     22  I   UNL     1      16.728  42.444  46.519  0.00  0.00    +0.000 I 
ATOM     23  C   UNL     1      17.088  40.405  46.106  0.00  0.00    +0.000 A 
ATOM     24  C   UNL     1      18.153  39.881  45.354  0.00  0.00    +0.000 A 
ATOM     25  C   UNL     1      16.038  39.560  46.513  0.00  0.00    +0.000 A 
ATOM     26  C   UNL     1      18.045  38.555  44.894  0.00  0.00    +0.000 A 
ATOM     27  C   UNL     1      15.970  38.239  46.074  0.00  0.00    +0.000 A 
ATOM     28  C   UNL     1      16.955  37.747  45.230  0.00  0.00    +0.000 A 
ENDBRANCH  21  24
ENDBRANCH   1  21
TORSDOF 8
ENDMDL
MODEL 5
REMARK VINA RESULT:      -7.9      2.941      7.949
REMARK  Name = 323412
REMARK  8 active torsions:
REMARK  status: ('A' for Active; 'I' for Inactive)
REMARK    1  A    between atoms: C_3  and  O_5
REMARK    2  A    between atoms: O_5  and  C_8
REMARK    3  A    between atoms: C_14  and  C_15
REMARK    4  A    between atoms: CA_16  and  N_17
REMARK    5  A    between atoms: CA_16  and  C_18
REMARK    6  A    between atoms: C_19  and  C_23
REMARK    7  A    between atoms: C_23  and  C_24
REMARK    8  A    between atoms: C_24  and  C_25
REMARK                            x       y       z     vdW  Elec       q    Type
REMARK                         _______ _______ _______ _____ _____    ______ ____
ROOT
ATOM      1  C   UNL     1      19.254  40.924  43.778  0.00  0.00    +0.000 A 
ATOM      2  C   UNL     1      19.838  39.828  43.146  0.00  0.00    +0.000 A 
ATOM      3  C   UNL     1      20.066  41.936  44.298  0.00  0.00    +0.000 A 
ATOM      4  C   UNL     1      21.216  39.617  43.279  0.00  0.00    +0.000 A 
ATOM      5  C   UNL     1      21.447  41.748  44.388  0.00  0.00    +0.000 A 
ATOM      6  C   UNL     1      22.013  40.542  43.958  0.00  0.00    +0.000 A 
ENDROOT
BRANCH   6   7
ATOM      7  C   UNL     1      23.343  40.168  44.450  0.00  0.00    +0.000 C 
ATOM      8  CA  UNL     1      23.989  40.537  45.570  0.00  0.00    +0.000 C 
BRANCH   8   9
ATOM      9  N   UNL     1      23.574  41.494  46.473  0.00  0.00    +0.000 N 
ATOM     10  C   UNL     1      22.973  41.232  47.689  0.00  0.00    +0.000 C 
ATOM     11  O   UNL     1      22.640  40.121  48.091  0.00  0.00    +0.000 OA
ATOM     12  H   UNL     1      23.716  42.438  46.231  0.00  0.00    +0.000 HD
BRANCH  10  13
ATOM     13  C   UNL     1      22.685  42.473  48.513  0.00  0.00    +0.000 C 
BRANCH  13  14
ATOM     14  C   UNL     1      23.501  42.459  49.793  0.00  0.00    +0.000 C 
BRANCH  14  15
ATOM     15  C   UNL     1      24.962  42.691  49.506  0.00  0.00    +0.000 C 
ATOM     16  O   UNL     1      25.473  42.520  48.407  0.00  0.00    +0.000 OA
ATOM     17  O   UNL     1      25.656  43.137  50.570  0.00  0.00    +0.000 OA
ENDBRANCH  14  15
ENDBRANCH  13  14
ENDBRANCH  10  13
ENDBRANCH   8   9
BRANCH   8  18
ATOM     18  C   UNL     1      25.230  39.746  45.886  0.00  0.00    +0.000 C 
ATOM     19  O   UNL     1      26.320  40.215  46.169  0.00  0.00    +0.000 OA
ATOM     20  OXT UNL     1      25.004  38.412  45.830  0.00  0.00    +0.000 OA
ENDBRANCH   8  18
ENDBRANCH   6   7
BRANCH   1  21
ATOM     21  O   UNL     1      17.908  41.102  43.967  0.00  0.00    +0.000 OA
BRANCH  21  24
ATOM     22  I   UNL     1      16.928  43.157  46.778  0.00  0.00    +0.000 I 
ATOM     23  C   UNL     1      16.842  41.112  46.258  0.00  0.00    +0.000 A 
ATOM     24  C   UNL     1      17.230  40.546  45.032  0.00  0.00    +0.000 A 
ATOM     25  C   UNL     1      16.175  40.321  47.213  0.00  0.00    +0.000 A 
ATOM     26  C   UNL     1      16.785  39.243  44.738  0.00  0.00    +0.000 A 
ATOM     27  C   UNL     1      15.775  39.021  46.913  0.00  0.00    +0.000 A 
ATOM     28  C   UNL     1      16.047  38.494  45.658  0.00  0.00    +0.000 A 
ENDBRANCH  21  24
ENDBRANCH   1  21
TORSDOF 8
ENDMDL
MODEL 6
REMARK VINA RESULT:      -7.6      2.920      7.296
REMARK  Name = 323412
REMARK  8 active torsions:
REMARK  status: ('A' for Active; 'I' for Inactive)
REMARK    1  A    between atoms: C_3  and  O_5
REMARK    2  A    between atoms: O_5  and  C_8
REMARK    3  A    between atoms: C_14  and  C_15
REMARK    4  A    between atoms: CA_16  and  N_17
REMARK    5  A    between atoms: CA_16  and  C_18
REMARK    6  A    between atoms: C_19  and  C_23
REMARK    7  A    between atoms: C_23  and  C_24
REMARK    8  A    between atoms: C_24  and  C_25
REMARK                            x       y       z     vdW  Elec       q    Type
REMARK                         _______ _______ _______ _____ _____    ______ ____
ROOT
ATOM      1  C   UNL     1      20.680  39.555  43.551  0.00  0.00    +0.000 A 
ATOM      2  C   UNL     1      21.698  38.663  43.883  0.00  0.00    +0.000 A 
ATOM      3  C   UNL     1      20.907  40.931  43.653  0.00  0.00    +0.000 A 
ATOM      4  C   UNL     1      22.824  39.135  44.568  0.00  0.00    +0.000 A 
ATOM      5  C   UNL     1      22.053  41.406  44.293  0.00  0.00    +0.000 A 
ATOM      6  C   UNL     1      22.972  40.499  44.833  0.00  0.00    +0.000 A 
ENDROOT
BRANCH   6   7
ATOM      7  C   UNL     1      23.905  40.966  45.864  0.00  0.00    +0.000 C 
ATOM      8  CA  UNL     1      23.678  41.679  46.982  0.00  0.00    +0.000 C 
BRANCH   8   9
ATOM      9  N   UNL     1      22.483  42.267  47.344  0.00  0.00    +0.000 N 
ATOM     10  C   UNL     1      21.307  41.586  47.591  0.00  0.00    +0.000 C 
ATOM     11  O   UNL     1      21.136  40.381  47.430  0.00  0.00    +0.000 OA
ATOM     12  H   UNL     1      22.468  43.247  47.434  0.00  0.00    +0.000 HD
BRANCH  10  13
ATOM     13  C   UNL     1      20.164  42.477  48.043  0.00  0.00    +0.000 C 
BRANCH  13  14
ATOM     14  C   UNL     1      18.932  42.229  47.193  0.00  0.00    +0.000 C 
BRANCH  14  15
ATOM     15  C   UNL     1      17.950  43.365  47.318  0.00  0.00    +0.000 C 
ATOM     16  O   UNL     1      18.263  44.498  47.662  0.00  0.00    +0.000 OA
ATOM     17  O   UNL     1      16.690  43.028  46.984  0.00  0.00    +0.000 OA
ENDBRANCH  14  15
ENDBRANCH  13  14
ENDBRANCH  10  13
ENDBRANCH   8   9
BRANCH   8  18
ATOM     18  C   UNL     1      24.831  41.745  47.947  0.00  0.00    +0.000 C 
ATOM     19  O   UNL     1      24.787  42.201  49.077  0.00  0.00    +0.000 OA
ATOM     20  OXT UNL     1      25.961  41.219  47.417  0.00  0.00    +0.000 OA
ENDBRANCH   8  18
ENDBRANCH   6   7
BRANCH   1  21
ATOM     21  O   UNL     1      19.421  39.200  43.140  0.00  0.00    +0.000 OA
BRANCH  21  24
ATOM     22  I   UNL     1      17.108  41.937  43.633  0.00  0.00    +0.000 I 
ATOM     23  C   UNL     1      17.413  40.011  44.442  0.00  0.00    +0.000 A 
ATOM     24  C   UNL     1      18.365  39.069  44.017  0.00  0.00    +0.000 A 
ATOM     25  C   UNL     1      16.434  39.639  45.383  0.00  0.00    +0.000 A 
ATOM     26  C   UNL     1      18.198  37.733  44.428  0.00  0.00    +0.000 A 
ATOM     27  C   UNL     1      16.310  38.317  45.803  0.00  0.00    +0.000 A 
ATOM     28  C   UNL     1      17.169  37.353  45.294  0.00  0.00    +0.000 A 
ENDBRANCH  21  24
ENDBRANCH   1  21
TORSDOF 8
ENDMDL
MODEL 7
REMARK VINA RESULT:      -7.5      3.132      7.172
REMARK  Name = 323412
REMARK  8 active torsions:
REMARK  status: ('A' for Active; 'I' for Inactive)
REMARK    1  A    between atoms: C_3  and  O_5
REMARK    2  A    between atoms: O_5  and  C_8
REMARK    3  A    between atoms: C_14  and  C_15
REMARK    4  A    between atoms: CA_16  and  N_17
REMARK    5  A    between atoms: CA_16  and  C_18
REMARK    6  A    between atoms: C_19  and  C_23
REMARK    7  A    between atoms: C_23  and  C_24
REMARK    8  A    between atoms: C_24  and  C_25
REMARK                            x       y       z     vdW  Elec       q    Type
REMARK                         _______ _______ _______ _____ _____    ______ ____
ROOT
ATOM      1  C   UNL     1      19.334  39.958  43.558  0.00  0.00    +0.000 A 
ATOM      2  C   UNL     1      20.143  38.828  43.650  0.00  0.00    +0.000 A 
ATOM      3  C   UNL     1      19.921  41.223  43.468  0.00  0.00    +0.000 A 
ATOM      4  C   UNL     1      21.507  38.984  43.927  0.00  0.00    +0.000 A 
ATOM      5  C   UNL     1      21.289  41.377  43.697  0.00  0.00    +0.000 A 
ATOM      6  C   UNL     1      22.069  40.260  44.017  0.00  0.00    +0.000 A 
ENDROOT
BRANCH   6   7
ATOM      7  C   UNL     1      23.362  40.465  44.681  0.00  0.00    +0.000 C 
ATOM      8  CA  UNL     1      23.661  41.127  45.813  0.00  0.00    +0.000 C 
BRANCH   8   9
ATOM      9  N   UNL     1      22.795  41.906  46.554  0.00  0.00    +0.000 N 
ATOM     10  C   UNL     1      21.784  41.420  47.361  0.00  0.00    +0.000 C 
ATOM     11  O   UNL     1      21.455  40.241  47.456  0.00  0.00    +0.000 OA
ATOM     12  H   UNL     1      22.906  42.883  46.504  0.00  0.00    +0.000 HD
BRANCH  10  13
ATOM     13  C   UNL     1      21.030  42.498  48.118  0.00  0.00    +0.000 C 
BRANCH  13  14
ATOM     14  C   UNL     1      19.534  42.329  47.930  0.00  0.00    +0.000 C 
BRANCH  14  15
ATOM     15  C   UNL     1      18.951  43.484  47.159  0.00  0.00    +0.000 C 
ATOM     16  O   UNL     1      18.018  44.167  47.561  0.00  0.00    +0.000 OA
ATOM     17  O   UNL     1      19.575  43.721  45.989  0.00  0.00    +0.000 OA
ENDBRANCH  14  15
ENDBRANCH  13  14
ENDBRANCH  10  13
ENDBRANCH   8   9
BRANCH   8  18
ATOM     18  C   UNL     1      25.052  40.903  46.340  0.00  0.00    +0.000 C 
ATOM     19  O   UNL     1      25.646  41.634  47.114  0.00  0.00    +0.000 OA
ATOM     20  OXT UNL     1      25.593  39.759  45.858  0.00  0.00    +0.000 OA
ENDBRANCH   8  18
ENDBRANCH   6   7
BRANCH   1  21
ATOM     21  O   UNL     1      17.963  39.951  43.570  0.00  0.00    +0.000 OA
BRANCH  21  24
ATOM     22  I   UNL     1      17.255  36.608  44.759  0.00  0.00    +0.000 I 
ATOM     23  C   UNL     1      16.755  38.582  45.318  0.00  0.00    +0.000 A 
ATOM     24  C   UNL     1      17.233  39.764  44.726  0.00  0.00    +0.000 A 
ATOM     25  C   UNL     1      15.996  38.652  46.501  0.00  0.00    +0.000 A 
ATOM     26  C   UNL     1      17.072  40.968  45.436  0.00  0.00    +0.000 A 
ATOM     27  C   UNL     1      15.819  39.862  47.169  0.00  0.00    +0.000 A 
ATOM     28  C   UNL     1      16.392  41.017  46.656  0.00  0.00    +0.000 A 
ENDBRANCH  21  24
ENDBRANCH   1  21
TORSDOF 8
ENDMDL
MODEL 8
REMARK VINA RESULT:      -7.5      3.193      6.969
REMARK  Name = 323412
REMARK  8 active torsions:
REMARK  status: ('A' for Active; 'I' for Inactive)
REMARK    1  A    between atoms: C_3  and  O_5
REMARK    2  A    between atoms: O_5  and  C_8
REMARK    3  A    between atoms: C_14  and  C_15
REMARK    4  A    between atoms: CA_16  and  N_17
REMARK    5  A    between atoms: CA_16  and  C_18
REMARK    6  A    between atoms: C_19  and  C_23
REMARK    7  A    between atoms: C_23  and  C_24
REMARK    8  A    between atoms: C_24  and  C_25
REMARK                            x       y       z     vdW  Elec       q    Type
REMARK                         _______ _______ _______ _____ _____    ______ ____
ROOT
ATOM      1  C   UNL     1      18.803  40.442  43.536  0.00  0.00    +0.000 A 
ATOM      2  C   UNL     1      19.059  39.079  43.666  0.00  0.00    +0.000 A 
ATOM      3  C   UNL     1      19.858  41.322  43.280  0.00  0.00    +0.000 A 
ATOM      4  C   UNL     1      20.381  38.642  43.813  0.00  0.00    +0.000 A 
ATOM      5  C   UNL     1      21.178  40.878  43.378  0.00  0.00    +0.000 A 
ATOM      6  C   UNL     1      21.440  39.551  43.736  0.00  0.00    +0.000 A 
ENDROOT
BRANCH   6   7
ATOM      7  C   UNL     1      22.763  39.208  44.268  0.00  0.00    +0.000 C 
ATOM      8  CA  UNL     1      23.428  39.703  45.327  0.00  0.00    +0.000 C 
BRANCH   8   9
ATOM      9  N   UNL     1      23.047  40.785  46.095  0.00  0.00    +0.000 N 
ATOM     10  C   UNL     1      22.890  40.768  47.467  0.00  0.00    +0.000 C 
ATOM     11  O   UNL     1      22.974  39.772  48.180  0.00  0.00    +0.000 OA
ATOM     12  H   UNL     1      22.873  41.634  45.628  0.00  0.00    +0.000 HD
BRANCH  10  13
ATOM     13  C   UNL     1      22.534  42.118  48.062  0.00  0.00    +0.000 C 
BRANCH  13  14
ATOM     14  C   UNL     1      21.417  42.768  47.267  0.00  0.00    +0.000 C 
BRANCH  14  15
ATOM     15  C   UNL     1      20.116  42.033  47.459  0.00  0.00    +0.000 C 
ATOM     16  O   UNL     1      19.834  40.990  46.883  0.00  0.00    +0.000 OA
ATOM     17  O   UNL     1      19.295  42.613  48.356  0.00  0.00    +0.000 OA
ENDBRANCH  14  15
ENDBRANCH  13  14
ENDBRANCH  10  13
ENDBRANCH   8   9
BRANCH   8  18
ATOM     18  C   UNL     1      24.648  38.926  45.740  0.00  0.00    +0.000 C 
ATOM     19  O   UNL     1      24.697  37.721  45.920  0.00  0.00    +0.000 OA
ATOM     20  OXT UNL     1      25.729  39.728  45.888  0.00  0.00    +0.000 OA
ENDBRANCH   8  18
ENDBRANCH   6   7
BRANCH   1  21
ATOM     21  O   UNL     1      17.571  41.030  43.663  0.00  0.00    +0.000 OA
BRANCH  21  24
ATOM     22  I   UNL     1      16.555  39.098  46.548  0.00  0.00    +0.000 I 
ATOM     23  C   UNL     1      16.644  41.139  46.011  0.00  0.00    +0.000 A 
ATOM     24  C   UNL     1      17.169  41.666  44.820  0.00  0.00    +0.000 A 
ATOM     25  C   UNL     1      16.274  42.007  47.056  0.00  0.00    +0.000 A 
ATOM     26  C   UNL     1      17.461  43.042  44.781  0.00  0.00    +0.000 A 
ATOM     27  C   UNL     1      16.541  43.372  46.981  0.00  0.00    +0.000 A 
ATOM     28  C   UNL     1      17.172  43.886  45.857  0.00  0.00    +0.000 A 
ENDBRANCH  21  24
ENDBRANCH   1  21
TORSDOF 8
ENDMDL
MODEL 9
REMARK VINA RESULT:      -6.9      1.773      2.630
REMARK  Name = 323412
REMARK  8 active torsions:
REMARK  status: ('A' for Active; 'I' for Inactive)
REMARK    1  A    between atoms: C_3  and  O_5
REMARK    2  A    between atoms: O_5  and  C_8
REMARK    3  A    between atoms: C_14  and  C_15
REMARK    4  A    between atoms: CA_16  and  N_17
REMARK    5  A    between atoms: CA_16  and  C_18
REMARK    6  A    between atoms: C_19  and  C_23
REMARK    7  A    between atoms: C_23  and  C_24
REMARK    8  A    between atoms: C_24  and  C_25
REMARK                            x       y       z     vdW  Elec       q    Type
REMARK                         _______ _______ _______ _____ _____    ______ ____
ROOT
ATOM      1  C   UNL     1      21.087  42.173  47.177  0.00  0.00    +0.000 A 
ATOM      2  C   UNL     1      19.741  41.849  47.341  0.00  0.00    +0.000 A 
ATOM      3  C   UNL     1      21.507  42.803  46.002  0.00  0.00    +0.000 A 
ATOM      4  C   UNL     1      18.885  41.904  46.235  0.00  0.00    +0.000 A 
ATOM      5  C   UNL     1      20.640  42.902  44.913  0.00  0.00    +0.000 A 
ATOM      6  C   UNL     1      19.350  42.368  45.002  0.00  0.00    +0.000 A 
ENDROOT
BRANCH   6   7
ATOM      7  C   UNL     1      18.619  42.070  43.765  0.00  0.00    +0.000 C 
ATOM      8  CA  UNL     1      17.761  41.073  43.482  0.00  0.00    +0.000 C 
BRANCH   8   9
ATOM      9  N   UNL     1      17.476  39.991  44.289  0.00  0.00    +0.000 N 
ATOM     10  C   UNL     1      18.208  38.820  44.335  0.00  0.00    +0.000 C 
ATOM     11  O   UNL     1      19.151  38.543  43.601  0.00  0.00    +0.000 OA
ATOM     12  H   UNL     1      16.690  40.058  44.878  0.00  0.00    +0.000 HD
BRANCH  10  13
ATOM     13  C   UNL     1      17.710  37.824  45.367  0.00  0.00    +0.000 C 
BRANCH  13  14
ATOM     14  C   UNL     1      16.282  38.145  45.767  0.00  0.00    +0.000 C 
BRANCH  14  15
ATOM     15  C   UNL     1      16.246  39.016  46.996  0.00  0.00    +0.000 C 
ATOM     16  O   UNL     1      17.248  39.406  47.581  0.00  0.00    +0.000 OA
ATOM     17  O   UNL     1      15.000  39.356  47.379  0.00  0.00    +0.000 OA
ENDBRANCH  14  15
ENDBRANCH  13  14
ENDBRANCH  10  13
ENDBRANCH   8   9
BRANCH   8  18
ATOM     18  C   UNL     1      16.992  41.233  42.199  0.00  0.00    +0.000 C 
ATOM     19  O   UNL     1      17.324  41.925  41.252  0.00  0.00    +0.000 OA
ATOM     20  OXT UNL     1      15.856  40.496  42.199  0.00  0.00    +0.000 OA
ENDBRANCH   8  18
ENDBRANCH   6   7
BRANCH   1  21
ATOM     21  O   UNL     1      22.081  41.903  48.082  0.00  0.00    +0.000 OA
BRANCH  21  24
ATOM     22  I   UNL     1      24.947  42.923  50.039  0.00  0.00    +0.000 I 
ATOM     23  C   UNL     1      24.603  41.888  48.230  0.00  0.00    +0.000 A 
ATOM     24  C   UNL     1      23.353  41.533  47.697  0.00  0.00    +0.000 A 
ATOM     25  C   UNL     1      25.781  41.398  47.635  0.00  0.00    +0.000 A 
ATOM     26  C   UNL     1      23.322  40.559  46.681  0.00  0.00    +0.000 A 
ATOM     27  C   UNL     1      25.727  40.461  46.605  0.00  0.00    +0.000 A 
ATOM     28  C   UNL     1      24.494  40.011  46.153  0.00  0.00    +0.000 A 
ENDBRANCH  21  24
ENDBRANCH   1  21
TORSDOF 8
ENDMDL
