MODEL 1
REMARK VINA RESULT:      -8.5      0.000      0.000
REMARK  Name = 323647
REMARK  10 active torsions:
REMARK  status: ('A' for Active; 'I' for Inactive)
REMARK    1  A    between atoms: C_2  and  CA_4
REMARK    2  A    between atoms: CA_4  and  N_5
REMARK    3  A    between atoms: C_6  and  C_8
REMARK    4  A    between atoms: C_7  and  C_10
REMARK    5  A    between atoms: C_10  and  C_13
REMARK    6  A    between atoms: C_13  and  C_16
REMARK    7  A    between atoms: C_17  and  O_20
REMARK    8  A    between atoms: O_20  and  C_23
REMARK    9  A    between atoms: C_24  and  C_27
REMARK   10  A    between atoms: C_27  and  C_30
REMARK                            x       y       z     vdW  Elec       q    Type
REMARK                         _______ _______ _______ _____ _____    ______ ____
ROOT
ATOM      1  CA  UNL     1      23.752  41.676  47.796  0.00  0.00    +0.000 C 
ATOM      2  C   UNL     1      22.639  42.263  48.279  0.00  0.00    +0.000 C 
ENDROOT
BRANCH   2   3
ATOM      3  C   UNL     1      21.251  41.962  47.895  0.00  0.00    +0.000 A 
ATOM      4  C   UNL     1      20.235  42.895  48.134  0.00  0.00    +0.000 A 
ATOM      5  C   UNL     1      20.932  40.729  47.310  0.00  0.00    +0.000 A 
ATOM      6  C   UNL     1      18.916  42.587  47.802  0.00  0.00    +0.000 A 
ATOM      7  C   UNL     1      19.611  40.417  46.983  0.00  0.00    +0.000 A 
ATOM      8  C   UNL     1      18.616  41.369  47.177  0.00  0.00    +0.000 A 
BRANCH   8   9
ATOM      9  O   UNL     1      17.360  41.084  46.681  0.00  0.00    +0.000 OA
BRANCH   9  10
ATOM     10  C   UNL     1      17.190  41.151  45.307  0.00  0.00    +0.000 A 
ATOM     11  C   UNL     1      16.973  39.971  44.576  0.00  0.00    +0.000 A 
ATOM     12  C   UNL     1      17.244  42.387  44.626  0.00  0.00    +0.000 A 
ATOM     13  C   UNL     1      16.705  40.096  43.193  0.00  0.00    +0.000 A 
ATOM     14  C   UNL     1      16.934  42.489  43.270  0.00  0.00    +0.000 A 
ATOM     15  C   UNL     1      16.652  41.336  42.557  0.00  0.00    +0.000 A 
BRANCH  11  16
ATOM     16  C   UNL     1      16.962  38.548  45.099  0.00  0.00    +0.000 C 
ATOM     17  C   UNL     1      16.027  38.113  46.216  0.00  0.00    +0.000 C 
ENDBRANCH  11  16
ENDBRANCH   9  10
ENDBRANCH   8   9
ENDBRANCH   2   3
BRANCH   1  18
ATOM     18  N   UNL     1      23.821  40.796  46.715  0.00  0.00    +0.000 N 
ATOM     19  C   UNL     1      23.727  39.421  46.793  0.00  0.00    +0.000 C 
ATOM     20  O   UNL     1      23.580  38.779  47.831  0.00  0.00    +0.000 OA
ATOM     21  H   UNL     1      23.948  41.189  45.821  0.00  0.00    +0.000 HD
BRANCH  19  22
ATOM     22  C   UNL     1      23.708  38.698  45.465  0.00  0.00    +0.000 C 
BRANCH  22  23
ATOM     23  C   UNL     1      23.797  39.781  44.388  0.00  0.00    +0.000 C 
BRANCH  23  24
ATOM     24  C   UNL     1      22.522  40.017  43.601  0.00  0.00    +0.000 C 
ATOM     25  C   UNL     1      21.916  41.376  43.954  0.00  0.00    +0.000 C 
ATOM     26  C   UNL     1      21.386  39.061  43.944  0.00  0.00    +0.000 C 
ATOM     27  C   UNL     1      20.459  41.274  43.524  0.00  0.00    +0.000 C 
ATOM     28  C   UNL     1      20.149  39.782  43.420  0.00  0.00    +0.000 C 
ENDBRANCH  23  24
ENDBRANCH  22  23
ENDBRANCH  19  22
ENDBRANCH   1  18
BRANCH   1  30
ATOM     29  O   UNL     1      26.112  41.443  47.931  0.00  0.00    +0.000 OA
ATOM     30  C   UNL     1      25.102  41.954  48.405  0.00  0.00    +0.000 C 
ATOM     31  OXT UNL     1      25.142  42.723  49.506  0.00  0.00    +0.000 OA
ENDBRANCH   1  30
TORSDOF 9
ENDMDL
MODEL 2
REMARK VINA RESULT:      -7.8      0.808      2.047
REMARK  Name = 323647
REMARK  10 active torsions:
REMARK  status: ('A' for Active; 'I' for Inactive)
REMARK    1  A    between atoms: C_2  and  CA_4
REMARK    2  A    between atoms: CA_4  and  N_5
REMARK    3  A    between atoms: C_6  and  C_8
REMARK    4  A    between atoms: C_7  and  C_10
REMARK    5  A    between atoms: C_10  and  C_13
REMARK    6  A    between atoms: C_13  and  C_16
REMARK    7  A    between atoms: C_17  and  O_20
REMARK    8  A    between atoms: O_20  and  C_23
REMARK    9  A    between atoms: C_24  and  C_27
REMARK   10  A    between atoms: C_27  and  C_30
REMARK                            x       y       z     vdW  Elec       q    Type
REMARK                         _______ _______ _______ _____ _____    ______ ____
ROOT
ATOM      1  CA  UNL     1      23.682  41.775  47.745  0.00  0.00    +0.000 C 
ATOM      2  C   UNL     1      22.584  42.527  47.954  0.00  0.00    +0.000 C 
ENDROOT
BRANCH   2   3
ATOM      3  C   UNL     1      21.261  42.340  47.336  0.00  0.00    +0.000 A 
ATOM      4  C   UNL     1      20.648  43.395  46.652  0.00  0.00    +0.000 A 
ATOM      5  C   UNL     1      20.596  41.111  47.451  0.00  0.00    +0.000 A 
ATOM      6  C   UNL     1      19.378  43.222  46.100  0.00  0.00    +0.000 A 
ATOM      7  C   UNL     1      19.323  40.939  46.905  0.00  0.00    +0.000 A 
ATOM      8  C   UNL     1      18.742  41.975  46.183  0.00  0.00    +0.000 A 
BRANCH   8   9
ATOM      9  O   UNL     1      17.564  41.703  45.517  0.00  0.00    +0.000 OA
BRANCH   9  10
ATOM     10  C   UNL     1      17.007  40.448  45.700  0.00  0.00    +0.000 A 
ATOM     11  C   UNL     1      16.863  39.585  44.601  0.00  0.00    +0.000 A 
ATOM     12  C   UNL     1      16.569  40.024  46.975  0.00  0.00    +0.000 A 
ATOM     13  C   UNL     1      16.383  38.278  44.851  0.00  0.00    +0.000 A 
ATOM     14  C   UNL     1      16.141  38.717  47.203  0.00  0.00    +0.000 A 
ATOM     15  C   UNL     1      16.061  37.839  46.135  0.00  0.00    +0.000 A 
BRANCH  11  16
ATOM     16  C   UNL     1      17.189  39.875  43.149  0.00  0.00    +0.000 C 
ATOM     17  C   UNL     1      16.961  41.248  42.536  0.00  0.00    +0.000 C 
ENDBRANCH  11  16
ENDBRANCH   9  10
ENDBRANCH   8   9
ENDBRANCH   2   3
BRANCH   1  18
ATOM     18  N   UNL     1      23.835  40.786  46.772  0.00  0.00    +0.000 N 
ATOM     19  C   UNL     1      23.760  39.425  46.994  0.00  0.00    +0.000 C 
ATOM     20  O   UNL     1      23.560  38.896  48.085  0.00  0.00    +0.000 OA
ATOM     21  H   UNL     1      24.012  41.083  45.850  0.00  0.00    +0.000 HD
BRANCH  19  22
ATOM     22  C   UNL     1      23.838  38.562  45.754  0.00  0.00    +0.000 C 
BRANCH  22  23
ATOM     23  C   UNL     1      23.978  39.525  44.573  0.00  0.00    +0.000 C 
BRANCH  23  24
ATOM     24  C   UNL     1      22.724  39.715  43.741  0.00  0.00    +0.000 C 
ATOM     25  C   UNL     1      22.193  41.141  43.887  0.00  0.00    +0.000 C 
ATOM     26  C   UNL     1      21.534  38.880  44.199  0.00  0.00    +0.000 C 
ATOM     27  C   UNL     1      20.735  41.057  43.454  0.00  0.00    +0.000 C 
ATOM     28  C   UNL     1      20.343  39.585  43.559  0.00  0.00    +0.000 C 
ENDBRANCH  23  24
ENDBRANCH  22  23
ENDBRANCH  19  22
ENDBRANCH   1  18
BRANCH   1  30
ATOM     29  O   UNL     1      24.838  42.369  49.733  0.00  0.00    +0.000 OA
ATOM     30  C   UNL     1      24.924  41.967  48.577  0.00  0.00    +0.000 C 
ATOM     31  OXT UNL     1      26.109  41.740  47.988  0.00  0.00    +0.000 OA
ENDBRANCH   1  30
TORSDOF 9
ENDMDL
MODEL 3
REMARK VINA RESULT:      -7.7      2.350      7.445
REMARK  Name = 323647
REMARK  10 active torsions:
REMARK  status: ('A' for Active; 'I' for Inactive)
REMARK    1  A    between atoms: C_2  and  CA_4
REMARK    2  A    between atoms: CA_4  and  N_5
REMARK    3  A    between atoms: C_6  and  C_8
REMARK    4  A    between atoms: C_7  and  C_10
REMARK    5  A    between atoms: C_10  and  C_13
REMARK    6  A    between atoms: C_13  and  C_16
REMARK    7  A    between atoms: C_17  and  O_20
REMARK    8  A    between atoms: O_20  and  C_23
REMARK    9  A    between atoms: C_24  and  C_27
REMARK   10  A    between atoms: C_27  and  C_30
REMARK                            x       y       z     vdW  Elec       q    Type
REMARK                         _______ _______ _______ _____ _____    ______ ____
ROOT
ATOM      1  CA  UNL     1      18.978  42.117  43.717  0.00  0.00    +0.000 C 
ATOM      2  C   UNL     1      20.290  42.269  43.983  0.00  0.00    +0.000 C 
ENDROOT
BRANCH   2   3
ATOM      3  C   UNL     1      21.013  41.754  45.157  0.00  0.00    +0.000 A 
ATOM      4  C   UNL     1      21.449  40.425  45.189  0.00  0.00    +0.000 A 
ATOM      5  C   UNL     1      21.249  42.585  46.261  0.00  0.00    +0.000 A 
ATOM      6  C   UNL     1      22.101  39.934  46.320  0.00  0.00    +0.000 A 
ATOM      7  C   UNL     1      21.896  42.094  47.396  0.00  0.00    +0.000 A 
ATOM      8  C   UNL     1      22.371  40.787  47.400  0.00  0.00    +0.000 A 
BRANCH   8   9
ATOM      9  O   UNL     1      23.153  40.398  48.469  0.00  0.00    +0.000 OA
BRANCH   9  10
ATOM     10  C   UNL     1      24.127  41.285  48.897  0.00  0.00    +0.000 A 
ATOM     11  C   UNL     1      25.352  41.355  48.213  0.00  0.00    +0.000 A 
ATOM     12  C   UNL     1      23.914  42.114  50.022  0.00  0.00    +0.000 A 
ATOM     13  C   UNL     1      26.277  42.343  48.622  0.00  0.00    +0.000 A 
ATOM     14  C   UNL     1      24.823  43.110  50.377  0.00  0.00    +0.000 A 
ATOM     15  C   UNL     1      26.004  43.230  49.664  0.00  0.00    +0.000 A 
BRANCH  11  16
ATOM     16  C   UNL     1      25.809  40.502  47.045  0.00  0.00    +0.000 C 
ATOM     17  C   UNL     1      25.463  40.861  45.608  0.00  0.00    +0.000 C 
ENDBRANCH  11  16
ENDBRANCH   9  10
ENDBRANCH   8   9
ENDBRANCH   2   3
BRANCH   1  18
ATOM     18  N   UNL     1      18.012  41.598  44.581  0.00  0.00    +0.000 N 
ATOM     19  C   UNL     1      17.514  42.234  45.701  0.00  0.00    +0.000 C 
ATOM     20  O   UNL     1      17.862  43.343  46.099  0.00  0.00    +0.000 OA
ATOM     21  H   UNL     1      17.656  40.703  44.375  0.00  0.00    +0.000 HD
BRANCH  19  22
ATOM     22  C   UNL     1      16.383  41.514  46.403  0.00  0.00    +0.000 C 
BRANCH  22  23
ATOM     23  C   UNL     1      16.939  40.151  46.819  0.00  0.00    +0.000 C 
BRANCH  23  24
ATOM     24  C   UNL     1      16.816  39.056  45.775  0.00  0.00    +0.000 C 
ATOM     25  C   UNL     1      16.286  37.769  46.407  0.00  0.00    +0.000 C 
ATOM     26  C   UNL     1      18.145  38.600  45.184  0.00  0.00    +0.000 C 
ATOM     27  C   UNL     1      16.682  36.668  45.434  0.00  0.00    +0.000 C 
ATOM     28  C   UNL     1      17.811  37.241  44.579  0.00  0.00    +0.000 C 
ENDBRANCH  23  24
ENDBRANCH  22  23
ENDBRANCH  19  22
ENDBRANCH   1  18
BRANCH   1  30
ATOM     29  O   UNL     1      18.769  43.586  41.862  0.00  0.00    +0.000 OA
ATOM     30  C   UNL     1      18.401  42.541  42.391  0.00  0.00    +0.000 C 
ATOM     31  OXT UNL     1      17.439  41.771  41.856  0.00  0.00    +0.000 OA
ENDBRANCH   1  30
TORSDOF 9
ENDMDL
MODEL 4
REMARK VINA RESULT:      -6.9      2.568      7.586
REMARK  Name = 323647
REMARK  10 active torsions:
REMARK  status: ('A' for Active; 'I' for Inactive)
REMARK    1  A    between atoms: C_2  and  CA_4
REMARK    2  A    between atoms: CA_4  and  N_5
REMARK    3  A    between atoms: C_6  and  C_8
REMARK    4  A    between atoms: C_7  and  C_10
REMARK    5  A    between atoms: C_10  and  C_13
REMARK    6  A    between atoms: C_13  and  C_16
REMARK    7  A    between atoms: C_17  and  O_20
REMARK    8  A    between atoms: O_20  and  C_23
REMARK    9  A    between atoms: C_24  and  C_27
REMARK   10  A    between atoms: C_27  and  C_30
REMARK                            x       y       z     vdW  Elec       q    Type
REMARK                         _______ _______ _______ _____ _____    ______ ____
ROOT
ATOM      1  CA  UNL     1      17.617  41.304  43.055  0.00  0.00    +0.000 C 
ATOM      2  C   UNL     1      18.905  41.693  43.116  0.00  0.00    +0.000 C 
ENDROOT
BRANCH   2   3
ATOM      3  C   UNL     1      19.813  41.546  44.265  0.00  0.00    +0.000 A 
ATOM      4  C   UNL     1      20.377  42.677  44.866  0.00  0.00    +0.000 A 
ATOM      5  C   UNL     1      20.138  40.271  44.748  0.00  0.00    +0.000 A 
ATOM      6  C   UNL     1      21.266  42.527  45.931  0.00  0.00    +0.000 A 
ATOM      7  C   UNL     1      21.032  40.120  45.810  0.00  0.00    +0.000 A 
ATOM      8  C   UNL     1      21.549  41.249  46.435  0.00  0.00    +0.000 A 
BRANCH   8   9
ATOM      9  O   UNL     1      22.289  41.057  47.584  0.00  0.00    +0.000 OA
BRANCH   9  10
ATOM     10  C   UNL     1      23.664  41.184  47.481  0.00  0.00    +0.000 A 
ATOM     11  C   UNL     1      24.381  41.824  48.507  0.00  0.00    +0.000 A 
ATOM     12  C   UNL     1      24.360  40.693  46.354  0.00  0.00    +0.000 A 
ATOM     13  C   UNL     1      25.792  41.842  48.409  0.00  0.00    +0.000 A 
ATOM     14  C   UNL     1      25.753  40.684  46.301  0.00  0.00    +0.000 A 
ATOM     15  C   UNL     1      26.469  41.252  47.341  0.00  0.00    +0.000 A 
BRANCH  11  16
ATOM     16  C   UNL     1      23.822  42.488  49.750  0.00  0.00    +0.000 C 
ATOM     17  C   UNL     1      24.715  43.236  50.729  0.00  0.00    +0.000 C 
ENDBRANCH  11  16
ENDBRANCH   9  10
ENDBRANCH   8   9
ENDBRANCH   2   3
BRANCH   1  18
ATOM     18  N   UNL     1      16.838  40.848  44.120  0.00  0.00    +0.000 N 
ATOM     19  C   UNL     1      16.829  39.558  44.612  0.00  0.00    +0.000 C 
ATOM     20  O   UNL     1      17.500  38.628  44.171  0.00  0.00    +0.000 OA
ATOM     21  H   UNL     1      16.244  41.502  44.557  0.00  0.00    +0.000 HD
BRANCH  19  22
ATOM     22  C   UNL     1      15.989  39.346  45.852  0.00  0.00    +0.000 C 
BRANCH  22  23
ATOM     23  C   UNL     1      16.830  39.847  47.028  0.00  0.00    +0.000 C 
BRANCH  23  24
ATOM     24  C   UNL     1      17.493  41.197  46.821  0.00  0.00    +0.000 C 
ATOM     25  C   UNL     1      18.408  41.532  47.999  0.00  0.00    +0.000 C 
ATOM     26  C   UNL     1      16.527  42.376  46.819  0.00  0.00    +0.000 C 
ATOM     27  C   UNL     1      18.590  43.042  47.930  0.00  0.00    +0.000 C 
ATOM     28  C   UNL     1      17.434  43.573  47.084  0.00  0.00    +0.000 C 
ENDBRANCH  23  24
ENDBRANCH  22  23
ENDBRANCH  19  22
ENDBRANCH   1  18
BRANCH   1  30
ATOM     29  O   UNL     1      17.337  41.903  40.773  0.00  0.00    +0.000 OA
ATOM     30  C   UNL     1      16.852  41.352  41.756  0.00  0.00    +0.000 C 
ATOM     31  OXT UNL     1      15.615  40.830  41.743  0.00  0.00    +0.000 OA
ENDBRANCH   1  30
TORSDOF 9
ENDMDL
MODEL 5
REMARK VINA RESULT:      -6.9      2.451      7.393
REMARK  Name = 323647
REMARK  10 active torsions:
REMARK  status: ('A' for Active; 'I' for Inactive)
REMARK    1  A    between atoms: C_2  and  CA_4
REMARK    2  A    between atoms: CA_4  and  N_5
REMARK    3  A    between atoms: C_6  and  C_8
REMARK    4  A    between atoms: C_7  and  C_10
REMARK    5  A    between atoms: C_10  and  C_13
REMARK    6  A    between atoms: C_13  and  C_16
REMARK    7  A    between atoms: C_17  and  O_20
REMARK    8  A    between atoms: O_20  and  C_23
REMARK    9  A    between atoms: C_24  and  C_27
REMARK   10  A    between atoms: C_27  and  C_30
REMARK                            x       y       z     vdW  Elec       q    Type
REMARK                         _______ _______ _______ _____ _____    ______ ____
ROOT
ATOM      1  CA  UNL     1      18.682  41.856  43.477  0.00  0.00    +0.000 C 
ATOM      2  C   UNL     1      19.971  42.170  43.714  0.00  0.00    +0.000 C 
ENDROOT
BRANCH   2   3
ATOM      3  C   UNL     1      20.770  41.775  44.885  0.00  0.00    +0.000 A 
ATOM      4  C   UNL     1      21.263  42.747  45.762  0.00  0.00    +0.000 A 
ATOM      5  C   UNL     1      21.062  40.423  45.116  0.00  0.00    +0.000 A 
ATOM      6  C   UNL     1      22.050  42.368  46.849  0.00  0.00    +0.000 A 
ATOM      7  C   UNL     1      21.855  40.043  46.200  0.00  0.00    +0.000 A 
ATOM      8  C   UNL     1      22.299  41.010  47.095  0.00  0.00    +0.000 A 
BRANCH   8   9
ATOM      9  O   UNL     1      22.931  40.572  48.242  0.00  0.00    +0.000 OA
BRANCH   9  10
ATOM     10  C   UNL     1      23.953  41.361  48.743  0.00  0.00    +0.000 A 
ATOM     11  C   UNL     1      25.227  41.307  48.150  0.00  0.00    +0.000 A 
ATOM     12  C   UNL     1      23.742  42.212  49.851  0.00  0.00    +0.000 A 
ATOM     13  C   UNL     1      26.212  42.201  48.629  0.00  0.00    +0.000 A 
ATOM     14  C   UNL     1      24.716  43.115  50.275  0.00  0.00    +0.000 A 
ATOM     15  C   UNL     1      25.952  43.115  49.650  0.00  0.00    +0.000 A 
BRANCH  11  16
ATOM     16  C   UNL     1      25.681  40.408  47.017  0.00  0.00    +0.000 C 
ATOM     17  C   UNL     1      25.323  40.703  45.568  0.00  0.00    +0.000 C 
ENDBRANCH  11  16
ENDBRANCH   9  10
ENDBRANCH   8   9
ENDBRANCH   2   3
BRANCH   1  18
ATOM     18  N   UNL     1      17.800  41.248  44.371  0.00  0.00    +0.000 N 
ATOM     19  C   UNL     1      17.617  39.887  44.516  0.00  0.00    +0.000 C 
ATOM     20  O   UNL     1      18.199  39.021  43.867  0.00  0.00    +0.000 OA
ATOM     21  H   UNL     1      17.263  41.839  44.947  0.00  0.00    +0.000 HD
BRANCH  19  22
ATOM     22  C   UNL     1      16.692  39.476  45.641  0.00  0.00    +0.000 C 
BRANCH  22  23
ATOM     23  C   UNL     1      17.276  40.086  46.917  0.00  0.00    +0.000 C 
BRANCH  23  24
ATOM     24  C   UNL     1      17.750  41.522  46.789  0.00  0.00    +0.000 C 
ATOM     25  C   UNL     1      18.620  41.909  47.985  0.00  0.00    +0.000 C 
ATOM     26  C   UNL     1      16.636  42.560  46.855  0.00  0.00    +0.000 C 
ATOM     27  C   UNL     1      18.599  43.431  48.004  0.00  0.00    +0.000 C 
ATOM     28  C   UNL     1      17.376  43.850  47.190  0.00  0.00    +0.000 C 
ENDBRANCH  23  24
ENDBRANCH  22  23
ENDBRANCH  19  22
ENDBRANCH   1  18
BRANCH   1  30
ATOM     29  O   UNL     1      18.351  43.190  41.539  0.00  0.00    +0.000 OA
ATOM     30  C   UNL     1      18.037  42.175  42.152  0.00  0.00    +0.000 C 
ATOM     31  OXT UNL     1      17.076  41.345  41.713  0.00  0.00    +0.000 OA
ENDBRANCH   1  30
TORSDOF 9
ENDMDL
MODEL 6
REMARK VINA RESULT:      -6.6      2.035      7.063
REMARK  Name = 323647
REMARK  10 active torsions:
REMARK  status: ('A' for Active; 'I' for Inactive)
REMARK    1  A    between atoms: C_2  and  CA_4
REMARK    2  A    between atoms: CA_4  and  N_5
REMARK    3  A    between atoms: C_6  and  C_8
REMARK    4  A    between atoms: C_7  and  C_10
REMARK    5  A    between atoms: C_10  and  C_13
REMARK    6  A    between atoms: C_13  and  C_16
REMARK    7  A    between atoms: C_17  and  O_20
REMARK    8  A    between atoms: O_20  and  C_23
REMARK    9  A    between atoms: C_24  and  C_27
REMARK   10  A    between atoms: C_27  and  C_30
REMARK                            x       y       z     vdW  Elec       q    Type
REMARK                         _______ _______ _______ _____ _____    ______ ____
ROOT
ATOM      1  CA  UNL     1      17.249  39.612  46.292  0.00  0.00    +0.000 C 
ATOM      2  C   UNL     1      18.157  39.812  47.266  0.00  0.00    +0.000 C 
ENDROOT
BRANCH   2   3
ATOM      3  C   UNL     1      19.411  40.574  47.155  0.00  0.00    +0.000 A 
ATOM      4  C   UNL     1      19.383  41.972  47.093  0.00  0.00    +0.000 A 
ATOM      5  C   UNL     1      20.640  39.904  47.084  0.00  0.00    +0.000 A 
ATOM      6  C   UNL     1      20.573  42.686  46.950  0.00  0.00    +0.000 A 
ATOM      7  C   UNL     1      21.831  40.617  46.934  0.00  0.00    +0.000 A 
ATOM      8  C   UNL     1      21.800  42.007  46.926  0.00  0.00    +0.000 A 
BRANCH   8   9
ATOM      9  O   UNL     1      23.010  42.670  46.950  0.00  0.00    +0.000 OA
BRANCH   9  10
ATOM     10  C   UNL     1      23.775  42.550  48.099  0.00  0.00    +0.000 A 
ATOM     11  C   UNL     1      25.087  42.052  48.011  0.00  0.00    +0.000 A 
ATOM     12  C   UNL     1      23.255  42.908  49.363  0.00  0.00    +0.000 A 
ATOM     13  C   UNL     1      25.865  42.041  49.192  0.00  0.00    +0.000 A 
ATOM     14  C   UNL     1      24.056  42.930  50.504  0.00  0.00    +0.000 A 
ATOM     15  C   UNL     1      25.370  42.504  50.411  0.00  0.00    +0.000 A 
BRANCH  11  16
ATOM     16  C   UNL     1      25.799  41.538  46.775  0.00  0.00    +0.000 C 
ATOM     17  C   UNL     1      25.351  40.272  46.062  0.00  0.00    +0.000 C 
ENDBRANCH  11  16
ENDBRANCH   9  10
ENDBRANCH   8   9
ENDBRANCH   2   3
BRANCH   1  18
ATOM     18  N   UNL     1      17.398  39.933  44.942  0.00  0.00    +0.000 N 
ATOM     19  C   UNL     1      17.059  41.140  44.363  0.00  0.00    +0.000 C 
ATOM     20  O   UNL     1      16.567  42.097  44.957  0.00  0.00    +0.000 OA
ATOM     21  H   UNL     1      17.777  39.241  44.352  0.00  0.00    +0.000 HD
BRANCH  19  22
ATOM     22  C   UNL     1      17.433  41.285  42.904  0.00  0.00    +0.000 C 
BRANCH  22  23
ATOM     23  C   UNL     1      18.827  41.916  42.882  0.00  0.00    +0.000 C 
BRANCH  23  24
ATOM     24  C   UNL     1      19.904  41.133  43.610  0.00  0.00    +0.000 C 
ATOM     25  C   UNL     1      21.289  41.688  43.277  0.00  0.00    +0.000 C 
ATOM     26  C   UNL     1      20.027  39.679  43.171  0.00  0.00    +0.000 C 
ATOM     27  C   UNL     1      22.252  40.562  43.626  0.00  0.00    +0.000 C 
ATOM     28  C   UNL     1      21.417  39.282  43.656  0.00  0.00    +0.000 C 
ENDBRANCH  23  24
ENDBRANCH  22  23
ENDBRANCH  19  22
ENDBRANCH   1  18
BRANCH   1  30
ATOM     29  O   UNL     1      15.179  39.435  47.445  0.00  0.00    +0.000 OA
ATOM     30  C   UNL     1      15.922  38.962  46.590  0.00  0.00    +0.000 C 
ATOM     31  OXT UNL     1      15.623  37.829  45.933  0.00  0.00    +0.000 OA
ENDBRANCH   1  30
TORSDOF 9
ENDMDL
MODEL 7
REMARK VINA RESULT:      -6.5      2.444      7.620
REMARK  Name = 323647
REMARK  10 active torsions:
REMARK  status: ('A' for Active; 'I' for Inactive)
REMARK    1  A    between atoms: C_2  and  CA_4
REMARK    2  A    between atoms: CA_4  and  N_5
REMARK    3  A    between atoms: C_6  and  C_8
REMARK    4  A    between atoms: C_7  and  C_10
REMARK    5  A    between atoms: C_10  and  C_13
REMARK    6  A    between atoms: C_13  and  C_16
REMARK    7  A    between atoms: C_17  and  O_20
REMARK    8  A    between atoms: O_20  and  C_23
REMARK    9  A    between atoms: C_24  and  C_27
REMARK   10  A    between atoms: C_27  and  C_30
REMARK                            x       y       z     vdW  Elec       q    Type
REMARK                         _______ _______ _______ _____ _____    ______ ____
ROOT
ATOM      1  CA  UNL     1      18.647  41.950  43.527  0.00  0.00    +0.000 C 
ATOM      2  C   UNL     1      19.959  42.222  43.664  0.00  0.00    +0.000 C 
ENDROOT
BRANCH   2   3
ATOM      3  C   UNL     1      20.809  41.887  44.818  0.00  0.00    +0.000 A 
ATOM      4  C   UNL     1      21.054  42.840  45.812  0.00  0.00    +0.000 A 
ATOM      5  C   UNL     1      21.400  40.620  44.914  0.00  0.00    +0.000 A 
ATOM      6  C   UNL     1      21.892  42.528  46.884  0.00  0.00    +0.000 A 
ATOM      7  C   UNL     1      22.243  40.308  45.982  0.00  0.00    +0.000 A 
ATOM      8  C   UNL     1      22.441  41.242  46.993  0.00  0.00    +0.000 A 
BRANCH   8   9
ATOM      9  O   UNL     1      23.139  40.832  48.111  0.00  0.00    +0.000 OA
BRANCH   9  10
ATOM     10  C   UNL     1      24.442  41.283  48.245  0.00  0.00    +0.000 A 
ATOM     11  C   UNL     1      24.764  42.178  49.280  0.00  0.00    +0.000 A 
ATOM     12  C   UNL     1      25.453  40.868  47.350  0.00  0.00    +0.000 A 
ATOM     13  C   UNL     1      26.123  42.533  49.441  0.00  0.00    +0.000 A 
ATOM     14  C   UNL     1      26.792  41.197  47.557  0.00  0.00    +0.000 A 
ATOM     15  C   UNL     1      27.126  42.024  48.616  0.00  0.00    +0.000 A 
BRANCH  11  16
ATOM     16  C   UNL     1      23.819  42.805  50.287  0.00  0.00    +0.000 C 
ATOM     17  C   UNL     1      24.186  42.929  51.758  0.00  0.00    +0.000 C 
ENDBRANCH  11  16
ENDBRANCH   9  10
ENDBRANCH   8   9
ENDBRANCH   2   3
BRANCH   1  18
ATOM     18  N   UNL     1      17.795  41.459  44.519  0.00  0.00    +0.000 N 
ATOM     19  C   UNL     1      17.355  42.166  45.620  0.00  0.00    +0.000 C 
ATOM     20  O   UNL     1      17.665  43.325  45.887  0.00  0.00    +0.000 OA
ATOM     21  H   UNL     1      17.480  40.531  44.424  0.00  0.00    +0.000 HD
BRANCH  19  22
ATOM     22  C   UNL     1      16.339  41.452  46.483  0.00  0.00    +0.000 C 
BRANCH  22  23
ATOM     23  C   UNL     1      16.961  40.102  46.847  0.00  0.00    +0.000 C 
BRANCH  23  24
ATOM     24  C   UNL     1      16.825  39.021  45.790  0.00  0.00    +0.000 C 
ATOM     25  C   UNL     1      16.301  37.727  46.411  0.00  0.00    +0.000 C 
ATOM     26  C   UNL     1      18.146  38.572  45.178  0.00  0.00    +0.000 C 
ATOM     27  C   UNL     1      16.685  36.638  45.418  0.00  0.00    +0.000 C 
ATOM     28  C   UNL     1      17.805  37.221  44.558  0.00  0.00    +0.000 C 
ENDBRANCH  23  24
ENDBRANCH  22  23
ENDBRANCH  19  22
ENDBRANCH   1  18
BRANCH   1  30
ATOM     29  O   UNL     1      18.224  43.161  41.528  0.00  0.00    +0.000 OA
ATOM     30  C   UNL     1      17.936  42.189  42.219  0.00  0.00    +0.000 C 
ATOM     31  OXT UNL     1      16.951  41.340  41.883  0.00  0.00    +0.000 OA
ENDBRANCH   1  30
TORSDOF 9
ENDMDL
MODEL 8
REMARK VINA RESULT:      -6.0      2.089      7.166
REMARK  Name = 323647
REMARK  10 active torsions:
REMARK  status: ('A' for Active; 'I' for Inactive)
REMARK    1  A    between atoms: C_2  and  CA_4
REMARK    2  A    between atoms: CA_4  and  N_5
REMARK    3  A    between atoms: C_6  and  C_8
REMARK    4  A    between atoms: C_7  and  C_10
REMARK    5  A    between atoms: C_10  and  C_13
REMARK    6  A    between atoms: C_13  and  C_16
REMARK    7  A    between atoms: C_17  and  O_20
REMARK    8  A    between atoms: O_20  and  C_23
REMARK    9  A    between atoms: C_24  and  C_27
REMARK   10  A    between atoms: C_27  and  C_30
REMARK                            x       y       z     vdW  Elec       q    Type
REMARK                         _______ _______ _______ _____ _____    ______ ____
ROOT
ATOM      1  CA  UNL     1      17.133  39.837  46.401  0.00  0.00    +0.000 C 
ATOM      2  C   UNL     1      18.160  39.688  47.260  0.00  0.00    +0.000 C 
ENDROOT
BRANCH   2   3
ATOM      3  C   UNL     1      19.374  40.518  47.330  0.00  0.00    +0.000 A 
ATOM      4  C   UNL     1      19.285  41.866  47.698  0.00  0.00    +0.000 A 
ATOM      5  C   UNL     1      20.622  39.971  47.003  0.00  0.00    +0.000 A 
ATOM      6  C   UNL     1      20.435  42.655  47.725  0.00  0.00    +0.000 A 
ATOM      7  C   UNL     1      21.772  40.762  47.024  0.00  0.00    +0.000 A 
ATOM      8  C   UNL     1      21.684  42.086  47.440  0.00  0.00    +0.000 A 
BRANCH   8   9
ATOM      9  O   UNL     1      22.866  42.779  47.611  0.00  0.00    +0.000 OA
BRANCH   9  10
ATOM     10  C   UNL     1      24.045  42.075  47.424  0.00  0.00    +0.000 A 
ATOM     11  C   UNL     1      25.071  42.173  48.380  0.00  0.00    +0.000 A 
ATOM     12  C   UNL     1      24.241  41.270  46.279  0.00  0.00    +0.000 A 
ATOM     13  C   UNL     1      26.215  41.362  48.199  0.00  0.00    +0.000 A 
ATOM     14  C   UNL     1      25.358  40.447  46.147  0.00  0.00    +0.000 A 
ATOM     15  C   UNL     1      26.342  40.487  47.120  0.00  0.00    +0.000 A 
BRANCH  11  16
ATOM     16  C   UNL     1      25.096  43.039  49.624  0.00  0.00    +0.000 C 
ATOM     17  C   UNL     1      24.156  42.787  50.793  0.00  0.00    +0.000 C 
ENDBRANCH  11  16
ENDBRANCH   9  10
ENDBRANCH   8   9
ENDBRANCH   2   3
BRANCH   1  18
ATOM     18  N   UNL     1      17.093  40.689  45.297  0.00  0.00    +0.000 N 
ATOM     19  C   UNL     1      16.760  42.029  45.330  0.00  0.00    +0.000 C 
ATOM     20  O   UNL     1      16.441  42.654  46.339  0.00  0.00    +0.000 OA
ATOM     21  H   UNL     1      17.322  40.303  44.420  0.00  0.00    +0.000 HD
BRANCH  19  22
ATOM     22  C   UNL     1      16.911  42.765  44.017  0.00  0.00    +0.000 C 
BRANCH  22  23
ATOM     23  C   UNL     1      17.287  41.708  42.976  0.00  0.00    +0.000 C 
BRANCH  23  24
ATOM     24  C   UNL     1      18.776  41.493  42.779  0.00  0.00    +0.000 C 
ATOM     25  C   UNL     1      19.174  40.076  43.190  0.00  0.00    +0.000 C 
ATOM     26  C   UNL     1      19.658  42.348  43.682  0.00  0.00    +0.000 C 
ATOM     27  C   UNL     1      20.675  40.149  43.431  0.00  0.00    +0.000 C 
ATOM     28  C   UNL     1      21.000  41.626  43.647  0.00  0.00    +0.000 C 
ENDBRANCH  23  24
ENDBRANCH  22  23
ENDBRANCH  19  22
ENDBRANCH   1  18
BRANCH   1  30
ATOM     29  O   UNL     1      15.003  39.380  47.349  0.00  0.00    +0.000 OA
ATOM     30  C   UNL     1      15.870  39.028  46.555  0.00  0.00    +0.000 C 
ATOM     31  OXT UNL     1      15.767  37.893  45.843  0.00  0.00    +0.000 OA
ENDBRANCH   1  30
TORSDOF 9
ENDMDL
MODEL 9
REMARK VINA RESULT:      -5.8      2.438      6.926
REMARK  Name = 323647
REMARK  10 active torsions:
REMARK  status: ('A' for Active; 'I' for Inactive)
REMARK    1  A    between atoms: C_2  and  CA_4
REMARK    2  A    between atoms: CA_4  and  N_5
REMARK    3  A    between atoms: C_6  and  C_8
REMARK    4  A    between atoms: C_7  and  C_10
REMARK    5  A    between atoms: C_10  and  C_13
REMARK    6  A    between atoms: C_13  and  C_16
REMARK    7  A    between atoms: C_17  and  O_20
REMARK    8  A    between atoms: O_20  and  C_23
REMARK    9  A    between atoms: C_24  and  C_27
REMARK   10  A    between atoms: C_27  and  C_30
REMARK                            x       y       z     vdW  Elec       q    Type
REMARK                         _______ _______ _______ _____ _____    ______ ____
ROOT
ATOM      1  CA  UNL     1      18.917  42.078  43.527  0.00  0.00    +0.000 C 
ATOM      2  C   UNL     1      19.465  42.969  44.376  0.00  0.00    +0.000 C 
ENDROOT
BRANCH   2   3
ATOM      3  C   UNL     1      20.221  42.663  45.602  0.00  0.00    +0.000 A 
ATOM      4  C   UNL     1      19.546  42.393  46.797  0.00  0.00    +0.000 A 
ATOM      5  C   UNL     1      21.623  42.664  45.584  0.00  0.00    +0.000 A 
ATOM      6  C   UNL     1      20.270  42.140  47.963  0.00  0.00    +0.000 A 
ATOM      7  C   UNL     1      22.348  42.418  46.751  0.00  0.00    +0.000 A 
ATOM      8  C   UNL     1      21.670  42.100  47.924  0.00  0.00    +0.000 A 
BRANCH   8   9
ATOM      9  O   UNL     1      22.427  41.696  49.005  0.00  0.00    +0.000 OA
BRANCH   9  10
ATOM     10  C   UNL     1      23.804  41.712  48.857  0.00  0.00    +0.000 A 
ATOM     11  C   UNL     1      24.440  40.667  48.164  0.00  0.00    +0.000 A 
ATOM     12  C   UNL     1      24.585  42.756  49.402  0.00  0.00    +0.000 A 
ATOM     13  C   UNL     1      25.834  40.775  47.950  0.00  0.00    +0.000 A 
ATOM     14  C   UNL     1      25.950  42.862  49.139  0.00  0.00    +0.000 A 
ATOM     15  C   UNL     1      26.571  41.870  48.399  0.00  0.00    +0.000 A 
BRANCH  11  16
ATOM     16  C   UNL     1      23.802  39.423  47.579  0.00  0.00    +0.000 C 
ATOM     17  C   UNL     1      23.918  39.082  46.101  0.00  0.00    +0.000 C 
ENDBRANCH  11  16
ENDBRANCH   9  10
ENDBRANCH   8   9
ENDBRANCH   2   3
BRANCH   1  18
ATOM     18  N   UNL     1      18.803  40.702  43.729  0.00  0.00    +0.000 N 
ATOM     19  C   UNL     1      19.833  39.787  43.619  0.00  0.00    +0.000 C 
ATOM     20  O   UNL     1      20.992  40.060  43.315  0.00  0.00    +0.000 OA
ATOM     21  H   UNL     1      17.915  40.353  43.971  0.00  0.00    +0.000 HD
BRANCH  19  22
ATOM     22  C   UNL     1      19.481  38.369  44.009  0.00  0.00    +0.000 C 
BRANCH  22  23
ATOM     23  C   UNL     1      17.974  38.361  44.274  0.00  0.00    +0.000 C 
BRANCH  23  24
ATOM     24  C   UNL     1      17.558  38.814  45.662  0.00  0.00    +0.000 C 
ATOM     25  C   UNL     1      16.537  37.846  46.260  0.00  0.00    +0.000 C 
ATOM     26  C   UNL     1      16.801  40.137  45.689  0.00  0.00    +0.000 C 
ATOM     27  C   UNL     1      15.847  38.642  47.359  0.00  0.00    +0.000 C 
ATOM     28  C   UNL     1      16.105  40.115  47.045  0.00  0.00    +0.000 C 
ENDBRANCH  23  24
ENDBRANCH  22  23
ENDBRANCH  19  22
ENDBRANCH   1  18
BRANCH   1  30
ATOM     29  O   UNL     1      18.682  43.575  41.697  0.00  0.00    +0.000 OA
ATOM     30  C   UNL     1      18.323  42.522  42.214  0.00  0.00    +0.000 C 
ATOM     31  OXT UNL     1      17.357  41.758  41.679  0.00  0.00    +0.000 OA
ENDBRANCH   1  30
TORSDOF 9
ENDMDL
