MODEL 1
REMARK VINA RESULT:      -8.4      0.000      0.000
REMARK  Name = 323164
REMARK  6 active torsions:
REMARK  status: ('A' for Active; 'I' for Inactive)
REMARK    1  A    between atoms: C_3  and  O_5
REMARK    2  A    between atoms: O_5  and  C_8
REMARK    3  A    between atoms: C_14  and  C_15
REMARK    4  A    between atoms: C_16  and  N_17
REMARK    5  A    between atoms: C_16  and  C_18
REMARK    6  A    between atoms: C_19  and  C_23
REMARK                            x       y       z     vdW  Elec       q    Type
REMARK                         _______ _______ _______ _____ _____    ______ ____
ROOT
ATOM      1  C   UNL     1      20.217  42.398  43.565  0.00  0.00    +0.000 C 
ATOM      2  C   UNL     1      18.964  41.945  43.383  0.00  0.00    +0.000 C 
ENDROOT
BRANCH   1   8
ATOM      3  C   UNL     1      22.525  41.243  46.939  0.00  0.00    +0.000 A 
ATOM      4  C   UNL     1      21.887  42.483  46.941  0.00  0.00    +0.000 A 
ATOM      5  C   UNL     1      22.618  40.512  45.750  0.00  0.00    +0.000 A 
ATOM      6  C   UNL     1      21.208  42.917  45.796  0.00  0.00    +0.000 A 
ATOM      7  C   UNL     1      21.923  40.937  44.615  0.00  0.00    +0.000 A 
ATOM      8  C   UNL     1      21.174  42.119  44.645  0.00  0.00    +0.000 A 
BRANCH   3   9
ATOM      9  O   UNL     1      23.021  40.773  48.138  0.00  0.00    +0.000 OA
BRANCH   9  12
ATOM     10 BR   UNL     1      25.820  40.671  46.822  0.00  0.00    +0.000 Br
ATOM     11  C   UNL     1      25.259  41.606  48.374  0.00  0.00    +0.000 A 
ATOM     12  C   UNL     1      23.930  41.570  48.816  0.00  0.00    +0.000 A 
ATOM     13  C   UNL     1      26.219  42.345  49.079  0.00  0.00    +0.000 A 
ATOM     14  C   UNL     1      23.564  42.364  49.915  0.00  0.00    +0.000 A 
ATOM     15  C   UNL     1      25.854  43.068  50.214  0.00  0.00    +0.000 A 
ATOM     16  C   UNL     1      24.523  43.089  50.624  0.00  0.00    +0.000 A 
ENDBRANCH   9  12
ENDBRANCH   3   9
ENDBRANCH   1   8
BRANCH   2  17
ATOM     17  C   UNL     1      18.200  42.573  42.247  0.00  0.00    +0.000 C 
ATOM     18  O   UNL     1      18.473  43.655  41.745  0.00  0.00    +0.000 OA
ATOM     19  N   UNL     1      17.179  41.806  41.760  0.00  0.00    +0.000 N 
ATOM     20  H   UNL     1      16.973  40.938  42.176  0.00  0.00    +0.000 HD
ATOM     21  H   UNL     1      16.649  42.122  40.993  0.00  0.00    +0.000 HD
ENDBRANCH   2  17
BRANCH   2  22
ATOM     22  N   UNL     1      18.330  40.973  44.139  0.00  0.00    +0.000 N 
ATOM     23  C   UNL     1      18.622  39.632  43.973  0.00  0.00    +0.000 C 
ATOM     24  O   UNL     1      19.367  39.186  43.105  0.00  0.00    +0.000 OA
ATOM     25  H   UNL     1      17.657  41.242  44.805  0.00  0.00    +0.000 HD
BRANCH  23  26
ATOM     26  C   UNL     1      17.892  38.670  44.841  0.00  0.00    +0.000 A 
ATOM     27  C   UNL     1      17.164  39.195  45.917  0.00  0.00    +0.000 A 
ATOM     28  C   UNL     1      17.835  37.301  44.560  0.00  0.00    +0.000 A 
ATOM     29  C   UNL     1      16.357  38.366  46.692  0.00  0.00    +0.000 A 
ATOM     30  C   UNL     1      17.018  36.474  45.338  0.00  0.00    +0.000 A 
ATOM     31  C   UNL     1      16.274  37.008  46.393  0.00  0.00    +0.000 A 
ENDBRANCH  23  26
ENDBRANCH   2  22
TORSDOF 6
ENDMDL
MODEL 2
REMARK VINA RESULT:      -7.1      3.596      7.731
REMARK  Name = 323164
REMARK  6 active torsions:
REMARK  status: ('A' for Active; 'I' for Inactive)
REMARK    1  A    between atoms: C_3  and  O_5
REMARK    2  A    between atoms: O_5  and  C_8
REMARK    3  A    between atoms: C_14  and  C_15
REMARK    4  A    between atoms: C_16  and  N_17
REMARK    5  A    between atoms: C_16  and  C_18
REMARK    6  A    between atoms: C_19  and  C_23
REMARK                            x       y       z     vdW  Elec       q    Type
REMARK                         _______ _______ _______ _____ _____    ______ ____
ROOT
ATOM      1  C   UNL     1      23.165  39.027  44.620  0.00  0.00    +0.000 C 
ATOM      2  C   UNL     1      23.833  38.857  45.775  0.00  0.00    +0.000 C 
ENDROOT
BRANCH   1   8
ATOM      3  C   UNL     1      20.080  41.865  43.939  0.00  0.00    +0.000 A 
ATOM      4  C   UNL     1      20.121  40.705  43.167  0.00  0.00    +0.000 A 
ATOM      5  C   UNL     1      21.176  42.209  44.736  0.00  0.00    +0.000 A 
ATOM      6  C   UNL     1      21.190  39.812  43.312  0.00  0.00    +0.000 A 
ATOM      7  C   UNL     1      22.231  41.307  44.896  0.00  0.00    +0.000 A 
ATOM      8  C   UNL     1      22.222  40.081  44.221  0.00  0.00    +0.000 A 
BRANCH   3   9
ATOM      9  O   UNL     1      18.926  42.622  43.900  0.00  0.00    +0.000 OA
BRANCH   9  12
ATOM     10 BR   UNL     1      16.819  40.365  44.107  0.00  0.00    +0.000 Br
ATOM     11  C   UNL     1      17.156  41.802  45.298  0.00  0.00    +0.000 A 
ATOM     12  C   UNL     1      18.184  42.725  45.066  0.00  0.00    +0.000 A 
ATOM     13  C   UNL     1      16.341  41.921  46.432  0.00  0.00    +0.000 A 
ATOM     14  C   UNL     1      18.441  43.706  46.038  0.00  0.00    +0.000 A 
ATOM     15  C   UNL     1      16.561  42.948  47.350  0.00  0.00    +0.000 A 
ATOM     16  C   UNL     1      17.620  43.832  47.160  0.00  0.00    +0.000 A 
ENDBRANCH   9  12
ENDBRANCH   3   9
ENDBRANCH   1   8
BRANCH   2  17
ATOM     17  C   UNL     1      24.592  37.563  45.908  0.00  0.00    +0.000 C 
ATOM     18  O   UNL     1      25.704  37.362  45.437  0.00  0.00    +0.000 OA
ATOM     19  N   UNL     1      23.961  36.612  46.660  0.00  0.00    +0.000 N 
ATOM     20  H   UNL     1      23.067  36.791  47.031  0.00  0.00    +0.000 HD
ATOM     21  H   UNL     1      24.402  35.748  46.831  0.00  0.00    +0.000 HD
ENDBRANCH   2  17
BRANCH   2  22
ATOM     22  N   UNL     1      23.877  39.752  46.831  0.00  0.00    +0.000 N 
ATOM     23  C   UNL     1      24.879  40.700  46.925  0.00  0.00    +0.000 C 
ATOM     24  O   UNL     1      25.843  40.770  46.169  0.00  0.00    +0.000 OA
ATOM     25  H   UNL     1      23.184  39.711  47.528  0.00  0.00    +0.000 HD
BRANCH  23  26
ATOM     26  C   UNL     1      24.830  41.619  48.094  0.00  0.00    +0.000 A 
ATOM     27  C   UNL     1      23.585  41.820  48.705  0.00  0.00    +0.000 A 
ATOM     28  C   UNL     1      25.980  42.195  48.644  0.00  0.00    +0.000 A 
ATOM     29  C   UNL     1      23.489  42.568  49.877  0.00  0.00    +0.000 A 
ATOM     30  C   UNL     1      25.879  42.938  49.824  0.00  0.00    +0.000 A 
ATOM     31  C   UNL     1      24.639  43.114  50.443  0.00  0.00    +0.000 A 
ENDBRANCH  23  26
ENDBRANCH   2  22
TORSDOF 6
ENDMDL
MODEL 3
REMARK VINA RESULT:      -6.4      2.324      3.721
REMARK  Name = 323164
REMARK  6 active torsions:
REMARK  status: ('A' for Active; 'I' for Inactive)
REMARK    1  A    between atoms: C_3  and  O_5
REMARK    2  A    between atoms: O_5  and  C_8
REMARK    3  A    between atoms: C_14  and  C_15
REMARK    4  A    between atoms: C_16  and  N_17
REMARK    5  A    between atoms: C_16  and  C_18
REMARK    6  A    between atoms: C_19  and  C_23
REMARK                            x       y       z     vdW  Elec       q    Type
REMARK                         _______ _______ _______ _____ _____    ______ ____
ROOT
ATOM      1  C   UNL     1      20.304  39.021  44.104  0.00  0.00    +0.000 C 
ATOM      2  C   UNL     1      19.074  39.545  44.245  0.00  0.00    +0.000 C 
ENDROOT
BRANCH   1   8
ATOM      3  C   UNL     1      23.914  40.483  45.798  0.00  0.00    +0.000 A 
ATOM      4  C   UNL     1      22.909  41.385  45.452  0.00  0.00    +0.000 A 
ATOM      5  C   UNL     1      23.840  39.158  45.356  0.00  0.00    +0.000 A 
ATOM      6  C   UNL     1      21.757  40.926  44.800  0.00  0.00    +0.000 A 
ATOM      7  C   UNL     1      22.682  38.697  44.724  0.00  0.00    +0.000 A 
ATOM      8  C   UNL     1      21.613  39.569  44.485  0.00  0.00    +0.000 A 
BRANCH   3   9
ATOM      9  O   UNL     1      24.941  40.941  46.599  0.00  0.00    +0.000 OA
BRANCH   9  12
ATOM     10 BR   UNL     1      27.443  41.611  48.291  0.00  0.00    +0.000 Br
ATOM     11  C   UNL     1      25.615  41.941  48.673  0.00  0.00    +0.000 A 
ATOM     12  C   UNL     1      24.600  41.600  47.769  0.00  0.00    +0.000 A 
ATOM     13  C   UNL     1      25.297  42.544  49.898  0.00  0.00    +0.000 A 
ATOM     14  C   UNL     1      23.278  41.962  48.073  0.00  0.00    +0.000 A 
ATOM     15  C   UNL     1      23.970  42.828  50.218  0.00  0.00    +0.000 A 
ATOM     16  C   UNL     1      22.961  42.549  49.299  0.00  0.00    +0.000 A 
ENDBRANCH   9  12
ENDBRANCH   3   9
ENDBRANCH   1   8
BRANCH   2  17
ATOM     17  C   UNL     1      17.957  38.781  43.583  0.00  0.00    +0.000 C 
ATOM     18  O   UNL     1      17.798  37.571  43.675  0.00  0.00    +0.000 OA
ATOM     19  N   UNL     1      17.069  39.559  42.894  0.00  0.00    +0.000 N 
ATOM     20  H   UNL     1      17.212  40.531  42.831  0.00  0.00    +0.000 HD
ATOM     21  H   UNL     1      16.287  39.147  42.462  0.00  0.00    +0.000 HD
ENDBRANCH   2  17
BRANCH   2  22
ATOM     22  N   UNL     1      18.755  40.706  44.929  0.00  0.00    +0.000 N 
ATOM     23  C   UNL     1      18.358  40.671  46.253  0.00  0.00    +0.000 C 
ATOM     24  O   UNL     1      18.160  39.642  46.892  0.00  0.00    +0.000 OA
ATOM     25  H   UNL     1      18.810  41.571  44.464  0.00  0.00    +0.000 HD
BRANCH  23  26
ATOM     26  C   UNL     1      18.047  41.974  46.899  0.00  0.00    +0.000 A 
ATOM     27  C   UNL     1      19.000  42.501  47.782  0.00  0.00    +0.000 A 
ATOM     28  C   UNL     1      16.903  42.714  46.582  0.00  0.00    +0.000 A 
ATOM     29  C   UNL     1      18.830  43.773  48.323  0.00  0.00    +0.000 A 
ATOM     30  C   UNL     1      16.741  43.993  47.123  0.00  0.00    +0.000 A 
ATOM     31  C   UNL     1      17.707  44.523  47.982  0.00  0.00    +0.000 A 
ENDBRANCH  23  26
ENDBRANCH   2  22
TORSDOF 6
ENDMDL
MODEL 4
REMARK VINA RESULT:      -6.3      2.422      3.838
REMARK  Name = 323164
REMARK  6 active torsions:
REMARK  status: ('A' for Active; 'I' for Inactive)
REMARK    1  A    between atoms: C_3  and  O_5
REMARK    2  A    between atoms: O_5  and  C_8
REMARK    3  A    between atoms: C_14  and  C_15
REMARK    4  A    between atoms: C_16  and  N_17
REMARK    5  A    between atoms: C_16  and  C_18
REMARK    6  A    between atoms: C_19  and  C_23
REMARK                            x       y       z     vdW  Elec       q    Type
REMARK                         _______ _______ _______ _____ _____    ______ ____
ROOT
ATOM      1  C   UNL     1      20.280  39.182  43.987  0.00  0.00    +0.000 C 
ATOM      2  C   UNL     1      19.062  39.700  44.222  0.00  0.00    +0.000 C 
ENDROOT
BRANCH   1   8
ATOM      3  C   UNL     1      24.103  40.424  45.360  0.00  0.00    +0.000 A 
ATOM      4  C   UNL     1      23.000  41.250  45.575  0.00  0.00    +0.000 A 
ATOM      5  C   UNL     1      23.998  39.339  44.484  0.00  0.00    +0.000 A 
ATOM      6  C   UNL     1      21.755  40.899  45.038  0.00  0.00    +0.000 A 
ATOM      7  C   UNL     1      22.751  38.979  43.967  0.00  0.00    +0.000 A 
ATOM      8  C   UNL     1      21.612  39.730  44.279  0.00  0.00    +0.000 A 
BRANCH   3   9
ATOM      9  O   UNL     1      25.261  40.706  46.055  0.00  0.00    +0.000 OA
BRANCH   9  12
ATOM     10 BR   UNL     1      23.461  39.079  47.975  0.00  0.00    +0.000 Br
ATOM     11  C   UNL     1      24.321  40.745  48.262  0.00  0.00    +0.000 A 
ATOM     12  C   UNL     1      25.138  41.330  47.287  0.00  0.00    +0.000 A 
ATOM     13  C   UNL     1      24.118  41.386  49.492  0.00  0.00    +0.000 A 
ATOM     14  C   UNL     1      25.822  42.515  47.603  0.00  0.00    +0.000 A 
ATOM     15  C   UNL     1      24.745  42.602  49.762  0.00  0.00    +0.000 A 
ATOM     16  C   UNL     1      25.608  43.160  48.823  0.00  0.00    +0.000 A 
ENDBRANCH   9  12
ENDBRANCH   3   9
ENDBRANCH   1   8
BRANCH   2  17
ATOM     17  C   UNL     1      17.902  38.939  43.634  0.00  0.00    +0.000 C 
ATOM     18  O   UNL     1      17.692  37.748  43.819  0.00  0.00    +0.000 OA
ATOM     19  N   UNL     1      17.039  39.702  42.899  0.00  0.00    +0.000 N 
ATOM     20  H   UNL     1      17.223  40.659  42.760  0.00  0.00    +0.000 HD
ATOM     21  H   UNL     1      16.233  39.294  42.508  0.00  0.00    +0.000 HD
ENDBRANCH   2  17
BRANCH   2  22
ATOM     22  N   UNL     1      18.790  40.853  44.940  0.00  0.00    +0.000 N 
ATOM     23  C   UNL     1      18.258  40.794  46.215  0.00  0.00    +0.000 C 
ATOM     24  O   UNL     1      17.895  39.760  46.769  0.00  0.00    +0.000 OA
ATOM     25  H   UNL     1      18.977  41.730  44.534  0.00  0.00    +0.000 HD
BRANCH  23  26
ATOM     26  C   UNL     1      18.011  42.089  46.903  0.00  0.00    +0.000 A 
ATOM     27  C   UNL     1      18.996  42.547  47.789  0.00  0.00    +0.000 A 
ATOM     28  C   UNL     1      16.897  42.887  46.623  0.00  0.00    +0.000 A 
ATOM     29  C   UNL     1      18.888  43.808  48.371  0.00  0.00    +0.000 A 
ATOM     30  C   UNL     1      16.797  44.155  47.205  0.00  0.00    +0.000 A 
ATOM     31  C   UNL     1      17.795  44.616  48.067  0.00  0.00    +0.000 A 
ENDBRANCH  23  26
ENDBRANCH   2  22
TORSDOF 6
ENDMDL
MODEL 5
REMARK VINA RESULT:      -5.9      3.152      7.223
REMARK  Name = 323164
REMARK  6 active torsions:
REMARK  status: ('A' for Active; 'I' for Inactive)
REMARK    1  A    between atoms: C_3  and  O_5
REMARK    2  A    between atoms: O_5  and  C_8
REMARK    3  A    between atoms: C_14  and  C_15
REMARK    4  A    between atoms: C_16  and  N_17
REMARK    5  A    between atoms: C_16  and  C_18
REMARK    6  A    between atoms: C_19  and  C_23
REMARK                            x       y       z     vdW  Elec       q    Type
REMARK                         _______ _______ _______ _____ _____    ______ ____
ROOT
ATOM      1  C   UNL     1      23.941  40.828  45.874  0.00  0.00    +0.000 C 
ATOM      2  C   UNL     1      23.730  41.711  46.866  0.00  0.00    +0.000 C 
ENDROOT
BRANCH   1   8
ATOM      3  C   UNL     1      20.787  39.375  43.430  0.00  0.00    +0.000 A 
ATOM      4  C   UNL     1      21.538  38.472  44.181  0.00  0.00    +0.000 A 
ATOM      5  C   UNL     1      21.229  40.693  43.282  0.00  0.00    +0.000 A 
ATOM      6  C   UNL     1      22.644  38.927  44.910  0.00  0.00    +0.000 A 
ATOM      7  C   UNL     1      22.319  41.150  44.027  0.00  0.00    +0.000 A 
ATOM      8  C   UNL     1      23.005  40.280  44.882  0.00  0.00    +0.000 A 
BRANCH   3   9
ATOM      9  O   UNL     1      19.604  38.923  42.878  0.00  0.00    +0.000 OA
BRANCH   9  12
ATOM     10 BR   UNL     1      17.787  41.427  42.964  0.00  0.00    +0.000 Br
ATOM     11  C   UNL     1      17.623  39.794  43.916  0.00  0.00    +0.000 A 
ATOM     12  C   UNL     1      18.525  38.739  43.729  0.00  0.00    +0.000 A 
ATOM     13  C   UNL     1      16.563  39.665  44.822  0.00  0.00    +0.000 A 
ATOM     14  C   UNL     1      18.288  37.524  44.391  0.00  0.00    +0.000 A 
ATOM     15  C   UNL     1      16.385  38.477  45.531  0.00  0.00    +0.000 A 
ATOM     16  C   UNL     1      17.240  37.401  45.305  0.00  0.00    +0.000 A 
ENDBRANCH   9  12
ENDBRANCH   3   9
ENDBRANCH   1   8
BRANCH   2  17
ATOM     17  C   UNL     1      24.885  41.924  47.810  0.00  0.00    +0.000 C 
ATOM     18  O   UNL     1      24.858  41.664  49.005  0.00  0.00    +0.000 OA
ATOM     19  N   UNL     1      26.023  42.391  47.214  0.00  0.00    +0.000 N 
ATOM     20  H   UNL     1      26.027  42.594  46.251  0.00  0.00    +0.000 HD
ATOM     21  H   UNL     1      26.838  42.524  47.749  0.00  0.00    +0.000 HD
ENDBRANCH   2  17
BRANCH   2  22
ATOM     22  N   UNL     1      22.563  42.422  47.091  0.00  0.00    +0.000 N 
ATOM     23  C   UNL     1      21.371  41.775  47.362  0.00  0.00    +0.000 C 
ATOM     24  O   UNL     1      21.218  40.558  47.328  0.00  0.00    +0.000 OA
ATOM     25  H   UNL     1      22.583  43.405  47.057  0.00  0.00    +0.000 HD
BRANCH  23  26
ATOM     26  C   UNL     1      20.178  42.631  47.598  0.00  0.00    +0.000 A 
ATOM     27  C   UNL     1      19.533  43.164  46.474  0.00  0.00    +0.000 A 
ATOM     28  C   UNL     1      19.640  42.832  48.873  0.00  0.00    +0.000 A 
ATOM     29  C   UNL     1      18.340  43.869  46.615  0.00  0.00    +0.000 A 
ATOM     30  C   UNL     1      18.438  43.535  49.008  0.00  0.00    +0.000 A 
ATOM     31  C   UNL     1      17.787  44.042  47.881  0.00  0.00    +0.000 A 
ENDBRANCH  23  26
ENDBRANCH   2  22
TORSDOF 6
ENDMDL
