MODEL 1
REMARK VINA RESULT:      -7.9      0.000      0.000
REMARK  Name = 323201
REMARK  8 active torsions:
REMARK  status: ('A' for Active; 'I' for Inactive)
REMARK    1  A    between atoms: C_3  and  O_5
REMARK    2  A    between atoms: O_5  and  C_8
REMARK    3  A    between atoms: C_15  and  C_16
REMARK    4  A    between atoms: CA_17  and  N_18
REMARK    5  A    between atoms: CA_17  and  C_19
REMARK    6  A    between atoms: C_20  and  C_24
REMARK    7  A    between atoms: C_24  and  C_25
REMARK    8  A    between atoms: C_25  and  C_26
REMARK                            x       y       z     vdW  Elec       q    Type
REMARK                         _______ _______ _______ _____ _____    ______ ____
ROOT
ATOM      1  C   UNL     1      22.615  42.214  48.334  0.00  0.00    +0.000 C 
ATOM      2  CA  UNL     1      23.729  41.711  47.774  0.00  0.00    +0.000 C 
ENDROOT
BRANCH   1   8
ATOM      3  C   UNL     1      18.571  41.516  47.223  0.00  0.00    +0.000 A 
ATOM      4  C   UNL     1      18.888  42.629  48.011  0.00  0.00    +0.000 A 
ATOM      5  C   UNL     1      19.540  40.543  46.974  0.00  0.00    +0.000 A 
ATOM      6  C   UNL     1      20.210  42.837  48.421  0.00  0.00    +0.000 A 
ATOM      7  C   UNL     1      20.855  40.752  47.387  0.00  0.00    +0.000 A 
ATOM      8  C   UNL     1      21.203  41.915  48.084  0.00  0.00    +0.000 A 
BRANCH   3   9
ATOM      9  O   UNL     1      17.326  41.281  46.700  0.00  0.00    +0.000 OA
BRANCH   9  12
ATOM     10 BR   UNL     1      16.704  38.477  45.683  0.00  0.00    +0.000 Br
ATOM     11  C   UNL     1      16.837  40.096  44.701  0.00  0.00    +0.000 A 
ATOM     12  C   UNL     1      17.136  41.313  45.332  0.00  0.00    +0.000 A 
ATOM     13  C   UNL     1      16.625  40.045  43.322  0.00  0.00    +0.000 A 
ATOM     14  C   UNL     1      17.281  42.470  44.549  0.00  0.00    +0.000 A 
ATOM     15  C   UNL     1      16.718  41.212  42.576  0.00  0.00    +0.000 A 
ATOM     16  C   UNL     1      17.046  42.423  43.173  0.00  0.00    +0.000 A 
ATOM     17  F   UNL     1      16.497  41.167  41.255  0.00  0.00    +0.000 F 
ENDBRANCH   9  12
ENDBRANCH   3   9
ENDBRANCH   1   8
BRANCH   2  18
ATOM     18  N   UNL     1      23.834  40.829  46.706  0.00  0.00    +0.000 N 
ATOM     19  C   UNL     1      23.766  39.451  46.779  0.00  0.00    +0.000 C 
ATOM     20  O   UNL     1      23.524  38.808  47.794  0.00  0.00    +0.000 OA
ATOM     21  H   UNL     1      23.968  41.224  45.814  0.00  0.00    +0.000 HD
BRANCH  19  22
ATOM     22  C   UNL     1      23.883  38.746  45.439  0.00  0.00    +0.000 C 
BRANCH  22  23
ATOM     23  C   UNL     1      23.907  39.819  44.346  0.00  0.00    +0.000 C 
BRANCH  23  24
ATOM     24  C   UNL     1      22.589  39.992  43.607  0.00  0.00    +0.000 C 
ATOM     25  C   UNL     1      21.932  41.334  43.943  0.00  0.00    +0.000 C 
ATOM     26  C   UNL     1      21.504  38.996  44.009  0.00  0.00    +0.000 C 
ATOM     27  C   UNL     1      20.462  41.154  43.577  0.00  0.00    +0.000 C 
ATOM     28  C   UNL     1      20.224  39.646  43.497  0.00  0.00    +0.000 C 
ENDBRANCH  23  24
ENDBRANCH  22  23
ENDBRANCH  19  22
ENDBRANCH   2  18
BRANCH   2  29
ATOM     29  C   UNL     1      25.006  42.157  48.440  0.00  0.00    +0.000 C 
ATOM     30  O   UNL     1      26.126  42.038  47.973  0.00  0.00    +0.000 OA
ATOM     31  OXT UNL     1      24.768  42.724  49.644  0.00  0.00    +0.000 OA
ENDBRANCH   2  29
TORSDOF 8
ENDMDL
MODEL 2
REMARK VINA RESULT:      -7.1      3.736      7.629
REMARK  Name = 323201
REMARK  8 active torsions:
REMARK  status: ('A' for Active; 'I' for Inactive)
REMARK    1  A    between atoms: C_3  and  O_5
REMARK    2  A    between atoms: O_5  and  C_8
REMARK    3  A    between atoms: C_15  and  C_16
REMARK    4  A    between atoms: CA_17  and  N_18
REMARK    5  A    between atoms: CA_17  and  C_19
REMARK    6  A    between atoms: C_20  and  C_24
REMARK    7  A    between atoms: C_24  and  C_25
REMARK    8  A    between atoms: C_25  and  C_26
REMARK                            x       y       z     vdW  Elec       q    Type
REMARK                         _______ _______ _______ _____ _____    ______ ____
ROOT
ATOM      1  C   UNL     1      18.801  41.306  42.800  0.00  0.00    +0.000 C 
ATOM      2  CA  UNL     1      17.511  41.024  43.050  0.00  0.00    +0.000 C 
ENDROOT
BRANCH   1   8
ATOM      3  C   UNL     1      22.026  40.517  45.457  0.00  0.00    +0.000 A 
ATOM      4  C   UNL     1      21.426  41.782  45.456  0.00  0.00    +0.000 A 
ATOM      5  C   UNL     1      21.700  39.594  44.462  0.00  0.00    +0.000 A 
ATOM      6  C   UNL     1      20.397  42.064  44.550  0.00  0.00    +0.000 A 
ATOM      7  C   UNL     1      20.678  39.879  43.559  0.00  0.00    +0.000 A 
ATOM      8  C   UNL     1      19.998  41.102  43.619  0.00  0.00    +0.000 A 
BRANCH   3   9
ATOM      9  O   UNL     1      22.973  40.122  46.366  0.00  0.00    +0.000 OA
BRANCH   9  12
ATOM     10 BR   UNL     1      25.985  40.560  46.233  0.00  0.00    +0.000 Br
ATOM     11  C   UNL     1      24.729  41.293  47.453  0.00  0.00    +0.000 A 
ATOM     12  C   UNL     1      23.363  40.982  47.373  0.00  0.00    +0.000 A 
ATOM     13  C   UNL     1      25.203  42.160  48.439  0.00  0.00    +0.000 A 
ATOM     14  C   UNL     1      22.487  41.506  48.337  0.00  0.00    +0.000 A 
ATOM     15  C   UNL     1      24.310  42.711  49.347  0.00  0.00    +0.000 A 
ATOM     16  C   UNL     1      22.958  42.392  49.309  0.00  0.00    +0.000 A 
ATOM     17  F   UNL     1      24.760  43.557  50.283  0.00  0.00    +0.000 F 
ENDBRANCH   9  12
ENDBRANCH   3   9
ENDBRANCH   1   8
BRANCH   2  18
ATOM     18  N   UNL     1      16.945  40.550  44.227  0.00  0.00    +0.000 N 
ATOM     19  C   UNL     1      17.005  39.251  44.694  0.00  0.00    +0.000 C 
ATOM     20  O   UNL     1      17.638  38.341  44.170  0.00  0.00    +0.000 OA
ATOM     21  H   UNL     1      16.455  41.201  44.780  0.00  0.00    +0.000 HD
BRANCH  19  22
ATOM     22  C   UNL     1      16.317  39.032  46.029  0.00  0.00    +0.000 C 
BRANCH  22  23
ATOM     23  C   UNL     1      17.171  39.698  47.111  0.00  0.00    +0.000 C 
BRANCH  23  24
ATOM     24  C   UNL     1      17.664  41.093  46.753  0.00  0.00    +0.000 C 
ATOM     25  C   UNL     1      18.713  41.588  47.751  0.00  0.00    +0.000 C 
ATOM     26  C   UNL     1      16.597  42.181  46.843  0.00  0.00    +0.000 C 
ATOM     27  C   UNL     1      18.723  43.105  47.591  0.00  0.00    +0.000 C 
ATOM     28  C   UNL     1      17.413  43.468  46.891  0.00  0.00    +0.000 C 
ENDBRANCH  23  24
ENDBRANCH  22  23
ENDBRANCH  19  22
ENDBRANCH   2  18
BRANCH   2  29
ATOM     29  C   UNL     1      16.598  41.228  41.868  0.00  0.00    +0.000 C 
ATOM     30  O   UNL     1      15.446  40.836  41.788  0.00  0.00    +0.000 OA
ATOM     31  OXT UNL     1      17.211  41.916  40.878  0.00  0.00    +0.000 OA
ENDBRANCH   2  29
TORSDOF 8
ENDMDL
MODEL 3
REMARK VINA RESULT:      -7.1      1.876      2.462
REMARK  Name = 323201
REMARK  8 active torsions:
REMARK  status: ('A' for Active; 'I' for Inactive)
REMARK    1  A    between atoms: C_3  and  O_5
REMARK    2  A    between atoms: O_5  and  C_8
REMARK    3  A    between atoms: C_15  and  C_16
REMARK    4  A    between atoms: CA_17  and  N_18
REMARK    5  A    between atoms: CA_17  and  C_19
REMARK    6  A    between atoms: C_20  and  C_24
REMARK    7  A    between atoms: C_24  and  C_25
REMARK    8  A    between atoms: C_25  and  C_26
REMARK                            x       y       z     vdW  Elec       q    Type
REMARK                         _______ _______ _______ _____ _____    ______ ____
ROOT
ATOM      1  C   UNL     1      22.537  42.778  48.450  0.00  0.00    +0.000 C 
ATOM      2  CA  UNL     1      23.462  41.818  48.618  0.00  0.00    +0.000 C 
ENDROOT
BRANCH   1   8
ATOM      3  C   UNL     1      18.808  42.281  46.469  0.00  0.00    +0.000 A 
ATOM      4  C   UNL     1      19.975  42.446  45.713  0.00  0.00    +0.000 A 
ATOM      5  C   UNL     1      18.843  42.476  47.850  0.00  0.00    +0.000 A 
ATOM      6  C   UNL     1      21.198  42.659  46.358  0.00  0.00    +0.000 A 
ATOM      7  C   UNL     1      20.062  42.692  48.490  0.00  0.00    +0.000 A 
ATOM      8  C   UNL     1      21.250  42.752  47.751  0.00  0.00    +0.000 A 
BRANCH   3   9
ATOM      9  O   UNL     1      17.585  41.976  45.929  0.00  0.00    +0.000 OA
BRANCH   9  12
ATOM     10 BR   UNL     1      17.470  41.075  43.021  0.00  0.00    +0.000 Br
ATOM     11  C   UNL     1      17.062  40.087  44.590  0.00  0.00    +0.000 A 
ATOM     12  C   UNL     1      17.168  40.662  45.865  0.00  0.00    +0.000 A 
ATOM     13  C   UNL     1      16.652  38.761  44.441  0.00  0.00    +0.000 A 
ATOM     14  C   UNL     1      16.797  39.904  46.988  0.00  0.00    +0.000 A 
ATOM     15  C   UNL     1      16.345  38.013  45.569  0.00  0.00    +0.000 A 
ATOM     16  C   UNL     1      16.410  38.570  46.841  0.00  0.00    +0.000 A 
ATOM     17  F   UNL     1      15.969  36.734  45.429  0.00  0.00    +0.000 F 
ENDBRANCH   9  12
ENDBRANCH   3   9
ENDBRANCH   1   8
BRANCH   2  18
ATOM     18  N   UNL     1      23.490  40.543  48.067  0.00  0.00    +0.000 N 
ATOM     19  C   UNL     1      24.298  40.123  47.027  0.00  0.00    +0.000 C 
ATOM     20  O   UNL     1      25.167  40.800  46.490  0.00  0.00    +0.000 OA
ATOM     21  H   UNL     1      22.877  39.876  48.454  0.00  0.00    +0.000 HD
BRANCH  19  22
ATOM     22  C   UNL     1      24.131  38.660  46.655  0.00  0.00    +0.000 C 
BRANCH  22  23
ATOM     23  C   UNL     1      23.744  38.595  45.175  0.00  0.00    +0.000 C 
BRANCH  23  24
ATOM     24  C   UNL     1      22.609  39.527  44.780  0.00  0.00    +0.000 C 
ATOM     25  C   UNL     1      21.449  38.757  44.144  0.00  0.00    +0.000 C 
ATOM     26  C   UNL     1      22.967  40.529  43.686  0.00  0.00    +0.000 C 
ATOM     27  C   UNL     1      20.664  39.805  43.360  0.00  0.00    +0.000 C 
ATOM     28  C   UNL     1      21.606  40.994  43.178  0.00  0.00    +0.000 C 
ENDBRANCH  23  24
ENDBRANCH  22  23
ENDBRANCH  19  22
ENDBRANCH   2  18
BRANCH   2  29
ATOM     29  C   UNL     1      24.577  42.196  49.560  0.00  0.00    +0.000 C 
ATOM     30  O   UNL     1      25.757  42.273  49.265  0.00  0.00    +0.000 OA
ATOM     31  OXT UNL     1      24.111  42.453  50.804  0.00  0.00    +0.000 OA
ENDBRANCH   2  29
TORSDOF 8
ENDMDL
MODEL 4
REMARK VINA RESULT:      -6.5      3.893      7.837
REMARK  Name = 323201
REMARK  8 active torsions:
REMARK  status: ('A' for Active; 'I' for Inactive)
REMARK    1  A    between atoms: C_3  and  O_5
REMARK    2  A    between atoms: O_5  and  C_8
REMARK    3  A    between atoms: C_15  and  C_16
REMARK    4  A    between atoms: CA_17  and  N_18
REMARK    5  A    between atoms: CA_17  and  C_19
REMARK    6  A    between atoms: C_20  and  C_24
REMARK    7  A    between atoms: C_24  and  C_25
REMARK    8  A    between atoms: C_25  and  C_26
REMARK                            x       y       z     vdW  Elec       q    Type
REMARK                         _______ _______ _______ _____ _____    ______ ____
ROOT
ATOM      1  C   UNL     1      19.654  41.340  43.217  0.00  0.00    +0.000 C 
ATOM      2  CA  UNL     1      18.365  41.435  43.585  0.00  0.00    +0.000 C 
ENDROOT
BRANCH   1   8
ATOM      3  C   UNL     1      23.016  41.134  45.813  0.00  0.00    +0.000 A 
ATOM      4  C   UNL     1      22.142  42.225  45.900  0.00  0.00    +0.000 A 
ATOM      5  C   UNL     1      22.895  40.230  44.756  0.00  0.00    +0.000 A 
ATOM      6  C   UNL     1      21.062  42.323  45.016  0.00  0.00    +0.000 A 
ATOM      7  C   UNL     1      21.820  40.334  43.875  0.00  0.00    +0.000 A 
ATOM      8  C   UNL     1      20.879  41.361  44.020  0.00  0.00    +0.000 A 
BRANCH   3   9
ATOM      9  O   UNL     1      24.043  40.906  46.692  0.00  0.00    +0.000 OA
BRANCH   9  12
ATOM     10 BR   UNL     1      26.946  41.444  47.443  0.00  0.00    +0.000 Br
ATOM     11  C   UNL     1      25.365  41.929  48.377  0.00  0.00    +0.000 A 
ATOM     12  C   UNL     1      24.094  41.597  47.886  0.00  0.00    +0.000 A 
ATOM     13  C   UNL     1      25.503  42.632  49.575  0.00  0.00    +0.000 A 
ATOM     14  C   UNL     1      22.961  41.928  48.647  0.00  0.00    +0.000 A 
ATOM     15  C   UNL     1      24.366  42.999  50.282  0.00  0.00    +0.000 A 
ATOM     16  C   UNL     1      23.097  42.653  49.834  0.00  0.00    +0.000 A 
ATOM     17  F   UNL     1      24.495  43.690  51.423  0.00  0.00    +0.000 F 
ENDBRANCH   9  12
ENDBRANCH   3   9
ENDBRANCH   1   8
BRANCH   2  18
ATOM     18  N   UNL     1      17.845  41.693  44.848  0.00  0.00    +0.000 N 
ATOM     19  C   UNL     1      17.040  42.760  45.195  0.00  0.00    +0.000 C 
ATOM     20  O   UNL     1      16.602  43.597  44.414  0.00  0.00    +0.000 OA
ATOM     21  H   UNL     1      18.073  41.053  45.561  0.00  0.00    +0.000 HD
BRANCH  19  22
ATOM     22  C   UNL     1      16.598  42.765  46.648  0.00  0.00    +0.000 C 
BRANCH  22  23
ATOM     23  C   UNL     1      16.993  41.418  47.261  0.00  0.00    +0.000 C 
BRANCH  23  24
ATOM     24  C   UNL     1      16.809  40.227  46.333  0.00  0.00    +0.000 C 
ATOM     25  C   UNL     1      15.740  39.267  46.861  0.00  0.00    +0.000 C 
ATOM     26  C   UNL     1      18.030  39.318  46.225  0.00  0.00    +0.000 C 
ATOM     27  C   UNL     1      16.022  37.941  46.161  0.00  0.00    +0.000 C 
ATOM     28  C   UNL     1      17.457  38.030  45.644  0.00  0.00    +0.000 C 
ENDBRANCH  23  24
ENDBRANCH  22  23
ENDBRANCH  19  22
ENDBRANCH   2  18
BRANCH   2  29
ATOM     29  C   UNL     1      17.387  41.190  42.464  0.00  0.00    +0.000 C 
ATOM     30  O   UNL     1      17.342  41.811  41.415  0.00  0.00    +0.000 OA
ATOM     31  OXT UNL     1      16.542  40.174  42.754  0.00  0.00    +0.000 OA
ENDBRANCH   2  29
TORSDOF 8
ENDMDL
MODEL 5
REMARK VINA RESULT:      -6.4      2.101      4.349
REMARK  Name = 323201
REMARK  8 active torsions:
REMARK  status: ('A' for Active; 'I' for Inactive)
REMARK    1  A    between atoms: C_3  and  O_5
REMARK    2  A    between atoms: O_5  and  C_8
REMARK    3  A    between atoms: C_15  and  C_16
REMARK    4  A    between atoms: CA_17  and  N_18
REMARK    5  A    between atoms: CA_17  and  C_19
REMARK    6  A    between atoms: C_20  and  C_24
REMARK    7  A    between atoms: C_24  and  C_25
REMARK    8  A    between atoms: C_25  and  C_26
REMARK                            x       y       z     vdW  Elec       q    Type
REMARK                         _______ _______ _______ _____ _____    ______ ____
ROOT
ATOM      1  C   UNL     1      24.489  40.661  45.889  0.00  0.00    +0.000 C 
ATOM      2  CA  UNL     1      24.496  41.453  46.976  0.00  0.00    +0.000 C 
ENDROOT
BRANCH   1   8
ATOM      3  C   UNL     1      21.080  39.611  43.577  0.00  0.00    +0.000 A 
ATOM      4  C   UNL     1      22.002  38.621  43.936  0.00  0.00    +0.000 A 
ATOM      5  C   UNL     1      21.379  40.955  43.806  0.00  0.00    +0.000 A 
ATOM      6  C   UNL     1      23.151  38.968  44.654  0.00  0.00    +0.000 A 
ATOM      7  C   UNL     1      22.527  41.297  44.519  0.00  0.00    +0.000 A 
ATOM      8  C   UNL     1      23.402  40.304  44.975  0.00  0.00    +0.000 A 
BRANCH   3   9
ATOM      9  O   UNL     1      19.885  39.353  42.956  0.00  0.00    +0.000 OA
BRANCH   9  12
ATOM     10 BR   UNL     1      17.802  41.576  42.960  0.00  0.00    +0.000 Br
ATOM     11  C   UNL     1      17.731  39.878  43.805  0.00  0.00    +0.000 A 
ATOM     12  C   UNL     1      18.790  38.964  43.702  0.00  0.00    +0.000 A 
ATOM     13  C   UNL     1      16.586  39.558  44.536  0.00  0.00    +0.000 A 
ATOM     14  C   UNL     1      18.710  37.746  44.396  0.00  0.00    +0.000 A 
ATOM     15  C   UNL     1      16.504  38.324  45.168  0.00  0.00    +0.000 A 
ATOM     16  C   UNL     1      17.554  37.416  45.108  0.00  0.00    +0.000 A 
ATOM     17  F   UNL     1      15.399  38.008  45.855  0.00  0.00    +0.000 F 
ENDBRANCH   9  12
ENDBRANCH   3   9
ENDBRANCH   1   8
BRANCH   2  18
ATOM     18  N   UNL     1      23.419  42.073  47.596  0.00  0.00    +0.000 N 
ATOM     19  C   UNL     1      22.217  41.478  47.927  0.00  0.00    +0.000 C 
ATOM     20  O   UNL     1      21.956  40.289  47.788  0.00  0.00    +0.000 OA
ATOM     21  H   UNL     1      23.523  43.026  47.822  0.00  0.00    +0.000 HD
BRANCH  19  22
ATOM     22  C   UNL     1      21.234  42.399  48.627  0.00  0.00    +0.000 C 
BRANCH  22  23
ATOM     23  C   UNL     1      20.386  43.084  47.552  0.00  0.00    +0.000 C 
BRANCH  23  24
ATOM     24  C   UNL     1      18.889  42.843  47.683  0.00  0.00    +0.000 C 
ATOM     25  C   UNL     1      18.508  41.433  47.226  0.00  0.00    +0.000 C 
ATOM     26  C   UNL     1      18.027  43.718  46.777  0.00  0.00    +0.000 C 
ATOM     27  C   UNL     1      17.014  41.508  46.925  0.00  0.00    +0.000 C 
ATOM     28  C   UNL     1      16.687  42.991  46.762  0.00  0.00    +0.000 C 
ENDBRANCH  23  24
ENDBRANCH  22  23
ENDBRANCH  19  22
ENDBRANCH   2  18
BRANCH   2  29
ATOM     29  C   UNL     1      25.870  41.706  47.543  0.00  0.00    +0.000 C 
ATOM     30  O   UNL     1      26.508  40.924  48.227  0.00  0.00    +0.000 OA
ATOM     31  OXT UNL     1      26.333  42.929  47.197  0.00  0.00    +0.000 OA
ENDBRANCH   2  29
TORSDOF 8
ENDMDL
MODEL 6
REMARK VINA RESULT:      -5.6      3.654      7.459
REMARK  Name = 323201
REMARK  8 active torsions:
REMARK  status: ('A' for Active; 'I' for Inactive)
REMARK    1  A    between atoms: C_3  and  O_5
REMARK    2  A    between atoms: O_5  and  C_8
REMARK    3  A    between atoms: C_15  and  C_16
REMARK    4  A    between atoms: CA_17  and  N_18
REMARK    5  A    between atoms: CA_17  and  C_19
REMARK    6  A    between atoms: C_20  and  C_24
REMARK    7  A    between atoms: C_24  and  C_25
REMARK    8  A    between atoms: C_25  and  C_26
REMARK                            x       y       z     vdW  Elec       q    Type
REMARK                         _______ _______ _______ _____ _____    ______ ____
ROOT
ATOM      1  C   UNL     1      18.228  39.712  47.147  0.00  0.00    +0.000 C 
ATOM      2  CA  UNL     1      17.185  39.929  46.327  0.00  0.00    +0.000 C 
ENDROOT
BRANCH   1   8
ATOM      3  C   UNL     1      21.930  41.801  47.037  0.00  0.00    +0.000 A 
ATOM      4  C   UNL     1      21.922  40.405  46.929  0.00  0.00    +0.000 A 
ATOM      5  C   UNL     1      20.757  42.478  47.376  0.00  0.00    +0.000 A 
ATOM      6  C   UNL     1      20.711  39.708  47.014  0.00  0.00    +0.000 A 
ATOM      7  C   UNL     1      19.554  41.780  47.463  0.00  0.00    +0.000 A 
ATOM      8  C   UNL     1      19.519  40.397  47.250  0.00  0.00    +0.000 A 
BRANCH   3   9
ATOM      9  O   UNL     1      23.051  42.573  46.875  0.00  0.00    +0.000 OA
BRANCH   9  12
ATOM     10 BR   UNL     1      24.716  40.769  45.071  0.00  0.00    +0.000 Br
ATOM     11  C   UNL     1      25.113  41.396  46.818  0.00  0.00    +0.000 A 
ATOM     12  C   UNL     1      24.224  42.228  47.516  0.00  0.00    +0.000 A 
ATOM     13  C   UNL     1      26.323  41.007  47.395  0.00  0.00    +0.000 A 
ATOM     14  C   UNL     1      24.541  42.615  48.829  0.00  0.00    +0.000 A 
ATOM     15  C   UNL     1      26.640  41.448  48.672  0.00  0.00    +0.000 A 
ATOM     16  C   UNL     1      25.763  42.245  49.397  0.00  0.00    +0.000 A 
ATOM     17  F   UNL     1      27.809  41.089  49.220  0.00  0.00    +0.000 F 
ENDBRANCH   9  12
ENDBRANCH   3   9
ENDBRANCH   1   8
BRANCH   2  18
ATOM     18  N   UNL     1      17.097  40.816  45.261  0.00  0.00    +0.000 N 
ATOM     19  C   UNL     1      16.775  42.157  45.342  0.00  0.00    +0.000 C 
ATOM     20  O   UNL     1      16.595  42.778  46.383  0.00  0.00    +0.000 OA
ATOM     21  H   UNL     1      17.282  40.454  44.364  0.00  0.00    +0.000 HD
BRANCH  19  22
ATOM     22  C   UNL     1      16.785  42.885  44.010  0.00  0.00    +0.000 C 
BRANCH  22  23
ATOM     23  C   UNL     1      17.140  41.867  42.922  0.00  0.00    +0.000 C 
BRANCH  23  24
ATOM     24  C   UNL     1      18.632  41.628  42.748  0.00  0.00    +0.000 C 
ATOM     25  C   UNL     1      19.031  40.224  43.210  0.00  0.00    +0.000 C 
ATOM     26  C   UNL     1      19.519  42.515  43.619  0.00  0.00    +0.000 C 
ATOM     27  C   UNL     1      20.533  40.307  43.465  0.00  0.00    +0.000 C 
ATOM     28  C   UNL     1      20.861  41.793  43.602  0.00  0.00    +0.000 C 
ENDBRANCH  23  24
ENDBRANCH  22  23
ENDBRANCH  19  22
ENDBRANCH   2  18
BRANCH   2  29
ATOM     29  C   UNL     1      15.962  39.114  46.661  0.00  0.00    +0.000 C 
ATOM     30  O   UNL     1      15.095  39.433  47.456  0.00  0.00    +0.000 OA
ATOM     31  OXT UNL     1      15.927  37.958  45.958  0.00  0.00    +0.000 OA
ENDBRANCH   2  29
TORSDOF 8
ENDMDL
MODEL 7
REMARK VINA RESULT:      -5.4      3.497      7.777
REMARK  Name = 323201
REMARK  8 active torsions:
REMARK  status: ('A' for Active; 'I' for Inactive)
REMARK    1  A    between atoms: C_3  and  O_5
REMARK    2  A    between atoms: O_5  and  C_8
REMARK    3  A    between atoms: C_15  and  C_16
REMARK    4  A    between atoms: CA_17  and  N_18
REMARK    5  A    between atoms: CA_17  and  C_19
REMARK    6  A    between atoms: C_20  and  C_24
REMARK    7  A    between atoms: C_24  and  C_25
REMARK    8  A    between atoms: C_25  and  C_26
REMARK                            x       y       z     vdW  Elec       q    Type
REMARK                         _______ _______ _______ _____ _____    ______ ____
ROOT
ATOM      1  C   UNL     1      20.035  39.249  43.952  0.00  0.00    +0.000 C 
ATOM      2  CA  UNL     1      18.858  39.898  43.942  0.00  0.00    +0.000 C 
ENDROOT
BRANCH   1   8
ATOM      3  C   UNL     1      23.902  40.392  45.301  0.00  0.00    +0.000 A 
ATOM      4  C   UNL     1      22.829  41.279  45.449  0.00  0.00    +0.000 A 
ATOM      5  C   UNL     1      23.743  39.231  44.542  0.00  0.00    +0.000 A 
ATOM      6  C   UNL     1      21.564  40.929  44.963  0.00  0.00    +0.000 A 
ATOM      7  C   UNL     1      22.483  38.887  44.056  0.00  0.00    +0.000 A 
ATOM      8  C   UNL     1      21.380  39.718  44.292  0.00  0.00    +0.000 A 
BRANCH   3   9
ATOM      9  O   UNL     1      25.150  40.608  45.825  0.00  0.00    +0.000 OA
BRANCH   9  12
ATOM     10 BR   UNL     1      23.493  39.281  48.010  0.00  0.00    +0.000 Br
ATOM     11  C   UNL     1      24.588  40.828  48.121  0.00  0.00    +0.000 A 
ATOM     12  C   UNL     1      25.289  41.310  47.006  0.00  0.00    +0.000 A 
ATOM     13  C   UNL     1      24.681  41.477  49.353  0.00  0.00    +0.000 A 
ATOM     14  C   UNL     1      26.038  42.492  47.129  0.00  0.00    +0.000 A 
ATOM     15  C   UNL     1      25.473  42.612  49.466  0.00  0.00    +0.000 A 
ATOM     16  C   UNL     1      26.150  43.128  48.368  0.00  0.00    +0.000 A 
ATOM     17  F   UNL     1      25.577  43.227  50.652  0.00  0.00    +0.000 F 
ENDBRANCH   9  12
ENDBRANCH   3   9
ENDBRANCH   1   8
BRANCH   2  18
ATOM     18  N   UNL     1      18.618  41.250  44.155  0.00  0.00    +0.000 N 
ATOM     19  C   UNL     1      18.173  42.156  43.212  0.00  0.00    +0.000 C 
ATOM     20  O   UNL     1      17.850  41.879  42.063  0.00  0.00    +0.000 OA
ATOM     21  H   UNL     1      18.779  41.593  45.064  0.00  0.00    +0.000 HD
BRANCH  19  22
ATOM     22  C   UNL     1      17.971  43.564  43.743  0.00  0.00    +0.000 C 
BRANCH  22  23
ATOM     23  C   UNL     1      16.787  43.534  44.714  0.00  0.00    +0.000 C 
BRANCH  23  24
ATOM     24  C   UNL     1      17.166  43.241  46.158  0.00  0.00    +0.000 C 
ATOM     25  C   UNL     1      18.642  43.546  46.421  0.00  0.00    +0.000 C 
ATOM     26  C   UNL     1      17.068  41.769  46.550  0.00  0.00    +0.000 C 
ATOM     27  C   UNL     1      18.990  42.752  47.677  0.00  0.00    +0.000 C 
ATOM     28  C   UNL     1      17.901  41.690  47.824  0.00  0.00    +0.000 C 
ENDBRANCH  23  24
ENDBRANCH  22  23
ENDBRANCH  19  22
ENDBRANCH   2  18
BRANCH   2  29
ATOM     29  C   UNL     1      17.666  39.006  43.701  0.00  0.00    +0.000 C 
ATOM     30  O   UNL     1      16.579  39.374  43.290  0.00  0.00    +0.000 OA
ATOM     31  OXT UNL     1      17.944  37.715  43.995  0.00  0.00    +0.000 OA
ENDBRANCH   2  29
TORSDOF 8
ENDMDL
MODEL 8
REMARK VINA RESULT:      -5.4      3.914      7.737
REMARK  Name = 323201
REMARK  8 active torsions:
REMARK  status: ('A' for Active; 'I' for Inactive)
REMARK    1  A    between atoms: C_3  and  O_5
REMARK    2  A    between atoms: O_5  and  C_8
REMARK    3  A    between atoms: C_15  and  C_16
REMARK    4  A    between atoms: CA_17  and  N_18
REMARK    5  A    between atoms: CA_17  and  C_19
REMARK    6  A    between atoms: C_20  and  C_24
REMARK    7  A    between atoms: C_24  and  C_25
REMARK    8  A    between atoms: C_25  and  C_26
REMARK                            x       y       z     vdW  Elec       q    Type
REMARK                         _______ _______ _______ _____ _____    ______ ____
ROOT
ATOM      1  C   UNL     1      18.801  38.688  45.501  0.00  0.00    +0.000 C 
ATOM      2  CA  UNL     1      17.535  38.879  45.090  0.00  0.00    +0.000 C 
ENDROOT
BRANCH   1   8
ATOM      3  C   UNL     1      22.190  41.140  46.265  0.00  0.00    +0.000 A 
ATOM      4  C   UNL     1      21.207  40.991  47.253  0.00  0.00    +0.000 A 
ATOM      5  C   UNL     1      21.960  40.650  44.979  0.00  0.00    +0.000 A 
ATOM      6  C   UNL     1      20.066  40.226  46.989  0.00  0.00    +0.000 A 
ATOM      7  C   UNL     1      20.820  39.891  44.719  0.00  0.00    +0.000 A 
ATOM      8  C   UNL     1      19.884  39.647  45.731  0.00  0.00    +0.000 A 
BRANCH   3   9
ATOM      9  O   UNL     1      23.379  41.791  46.463  0.00  0.00    +0.000 OA
BRANCH   9  12
ATOM     10 BR   UNL     1      26.351  41.204  46.792  0.00  0.00    +0.000 Br
ATOM     11  C   UNL     1      25.130  41.913  48.063  0.00  0.00    +0.000 A 
ATOM     12  C   UNL     1      23.780  42.121  47.743  0.00  0.00    +0.000 A 
ATOM     13  C   UNL     1      25.615  42.226  49.333  0.00  0.00    +0.000 A 
ATOM     14  C   UNL     1      22.908  42.591  48.739  0.00  0.00    +0.000 A 
ATOM     15  C   UNL     1      24.747  42.744  50.284  0.00  0.00    +0.000 A 
ATOM     16  C   UNL     1      23.399  42.928  50.003  0.00  0.00    +0.000 A 
ATOM     17  F   UNL     1      25.215  43.062  51.499  0.00  0.00    +0.000 F 
ENDBRANCH   9  12
ENDBRANCH   3   9
ENDBRANCH   1   8
BRANCH   2  18
ATOM     18  N   UNL     1      16.936  40.057  44.664  0.00  0.00    +0.000 N 
ATOM     19  C   UNL     1      17.306  40.807  43.564  0.00  0.00    +0.000 C 
ATOM     20  O   UNL     1      18.173  40.496  42.757  0.00  0.00    +0.000 OA
ATOM     21  H   UNL     1      16.176  40.388  45.196  0.00  0.00    +0.000 HD
BRANCH  19  22
ATOM     22  C   UNL     1      16.445  42.036  43.326  0.00  0.00    +0.000 C 
BRANCH  22  23
ATOM     23  C   UNL     1      17.133  43.226  44.000  0.00  0.00    +0.000 C 
BRANCH  23  24
ATOM     24  C   UNL     1      17.681  42.931  45.388  0.00  0.00    +0.000 C 
ATOM     25  C   UNL     1      16.807  43.556  46.479  0.00  0.00    +0.000 C 
ATOM     26  C   UNL     1      19.045  43.556  45.674  0.00  0.00    +0.000 C 
ATOM     27  C   UNL     1      17.707  43.633  47.708  0.00  0.00    +0.000 C 
ATOM     28  C   UNL     1      19.141  43.506  47.194  0.00  0.00    +0.000 C 
ENDBRANCH  23  24
ENDBRANCH  22  23
ENDBRANCH  19  22
ENDBRANCH   2  18
BRANCH   2  29
ATOM     29  C   UNL     1      16.677  37.640  45.149  0.00  0.00    +0.000 C 
ATOM     30  O   UNL     1      16.936  36.574  44.616  0.00  0.00    +0.000 OA
ATOM     31  OXT UNL     1      15.559  37.844  45.882  0.00  0.00    +0.000 OA
ENDBRANCH   2  29
TORSDOF 8
ENDMDL
MODEL 9
REMARK VINA RESULT:      -5.2      4.030      7.638
REMARK  Name = 323201
REMARK  8 active torsions:
REMARK  status: ('A' for Active; 'I' for Inactive)
REMARK    1  A    between atoms: C_3  and  O_5
REMARK    2  A    between atoms: O_5  and  C_8
REMARK    3  A    between atoms: C_15  and  C_16
REMARK    4  A    between atoms: CA_17  and  N_18
REMARK    5  A    between atoms: CA_17  and  C_19
REMARK    6  A    between atoms: C_20  and  C_24
REMARK    7  A    between atoms: C_24  and  C_25
REMARK    8  A    between atoms: C_25  and  C_26
REMARK                            x       y       z     vdW  Elec       q    Type
REMARK                         _______ _______ _______ _____ _____    ______ ____
ROOT
ATOM      1  C   UNL     1      18.382  43.455  46.187  0.00  0.00    +0.000 C 
ATOM      2  CA  UNL     1      17.270  43.202  45.475  0.00  0.00    +0.000 C 
ENDROOT
BRANCH   1   8
ATOM      3  C   UNL     1      22.039  41.424  46.950  0.00  0.00    +0.000 A 
ATOM      4  C   UNL     1      22.037  42.558  46.128  0.00  0.00    +0.000 A 
ATOM      5  C   UNL     1      20.829  40.855  47.349  0.00  0.00    +0.000 A 
ATOM      6  C   UNL     1      20.831  43.202  45.834  0.00  0.00    +0.000 A 
ATOM      7  C   UNL     1      19.628  41.497  47.050  0.00  0.00    +0.000 A 
ATOM      8  C   UNL     1      19.625  42.691  46.320  0.00  0.00    +0.000 A 
BRANCH   3   9
ATOM      9  O   UNL     1      23.178  40.785  47.366  0.00  0.00    +0.000 OA
BRANCH   9  12
ATOM     10 BR   UNL     1      26.047  40.627  46.354  0.00  0.00    +0.000 Br
ATOM     11  C   UNL     1      25.390  41.418  47.950  0.00  0.00    +0.000 A 
ATOM     12  C   UNL     1      24.024  41.400  48.267  0.00  0.00    +0.000 A 
ATOM     13  C   UNL     1      26.310  42.027  48.805  0.00  0.00    +0.000 A 
ATOM     14  C   UNL     1      23.600  41.949  49.489  0.00  0.00    +0.000 A 
ATOM     15  C   UNL     1      25.861  42.613  49.981  0.00  0.00    +0.000 A 
ATOM     16  C   UNL     1      24.517  42.579  50.333  0.00  0.00    +0.000 A 
ATOM     17  F   UNL     1      26.740  43.213  50.795  0.00  0.00    +0.000 F 
ENDBRANCH   9  12
ENDBRANCH   3   9
ENDBRANCH   1   8
BRANCH   2  18
ATOM     18  N   UNL     1      16.957  42.064  44.742  0.00  0.00    +0.000 N 
ATOM     19  C   UNL     1      17.472  41.725  43.506  0.00  0.00    +0.000 C 
ATOM     20  O   UNL     1      18.344  42.347  42.909  0.00  0.00    +0.000 OA
ATOM     21  H   UNL     1      16.308  41.441  45.142  0.00  0.00    +0.000 HD
BRANCH  19  22
ATOM     22  C   UNL     1      16.967  40.402  42.958  0.00  0.00    +0.000 C 
BRANCH  22  23
ATOM     23  C   UNL     1      17.995  39.325  43.312  0.00  0.00    +0.000 C 
BRANCH  23  24
ATOM     24  C   UNL     1      17.760  38.649  44.655  0.00  0.00    +0.000 C 
ATOM     25  C   UNL     1      17.735  37.125  44.516  0.00  0.00    +0.000 C 
ATOM     26  C   UNL     1      16.395  38.936  45.275  0.00  0.00    +0.000 C 
ATOM     27  C   UNL     1      17.005  36.629  45.760  0.00  0.00    +0.000 C 
ATOM     28  C   UNL     1      16.244  37.832  46.315  0.00  0.00    +0.000 C 
ENDBRANCH  23  24
ENDBRANCH  22  23
ENDBRANCH  19  22
ENDBRANCH   2  18
BRANCH   2  29
ATOM     29  C   UNL     1      16.275  44.334  45.466  0.00  0.00    +0.000 C 
ATOM     30  O   UNL     1      15.777  44.831  44.470  0.00  0.00    +0.000 OA
ATOM     31  OXT UNL     1      15.983  44.750  46.720  0.00  0.00    +0.000 OA
ENDBRANCH   2  29
TORSDOF 8
ENDMDL
