MODEL 1
REMARK VINA RESULT:      -9.0      0.000      0.000
REMARK  Name = 322398
REMARK  6 active torsions:
REMARK  status: ('A' for Active; 'I' for Inactive)
REMARK    1  A    between atoms: C_3  and  O_5
REMARK    2  A    between atoms: O_5  and  C_8
REMARK    3  A    between atoms: C_14  and  C_15
REMARK    4  A    between atoms: CA_16  and  N_17
REMARK    5  A    between atoms: CA_16  and  C_18
REMARK    6  A    between atoms: C_19  and  C_23
REMARK                            x       y       z     vdW  Elec       q    Type
REMARK                         _______ _______ _______ _____ _____    ______ ____
ROOT
ATOM      1  C   UNL     1      22.019  41.335  47.075  0.00  0.00    +0.000 A 
ATOM      2  C   UNL     1      21.384  42.542  46.793  0.00  0.00    +0.000 A 
ATOM      3  C   UNL     1      22.086  40.346  46.090  0.00  0.00    +0.000 A 
ATOM      4  C   UNL     1      20.602  42.650  45.636  0.00  0.00    +0.000 A 
ATOM      5  C   UNL     1      21.350  40.474  44.911  0.00  0.00    +0.000 A 
ATOM      6  C   UNL     1      20.540  41.598  44.717  0.00  0.00    +0.000 A 
ENDROOT
BRANCH   6   7
ATOM      7  C   UNL     1      19.512  41.563  43.669  0.00  0.00    +0.000 C 
ATOM      8  CA  UNL     1      18.278  41.033  43.709  0.00  0.00    +0.000 C 
BRANCH   8   9
ATOM      9  N   UNL     1      17.745  40.269  44.731  0.00  0.00    +0.000 N 
ATOM     10  C   UNL     1      18.006  38.923  44.898  0.00  0.00    +0.000 C 
ATOM     11  O   UNL     1      18.605  38.221  44.095  0.00  0.00    +0.000 OA
ATOM     12  H   UNL     1      17.145  40.711  45.375  0.00  0.00    +0.000 HD
BRANCH  10  13
ATOM     13  C   UNL     1      17.319  38.310  46.063  0.00  0.00    +0.000 C 
ATOM     14  C   UNL     1      15.944  37.702  45.893  0.00  0.00    +0.000 C 
ATOM     15  C   UNL     1      16.100  38.998  46.635  0.00  0.00    +0.000 C 
ENDBRANCH  10  13
ENDBRANCH   8   9
BRANCH   8  16
ATOM     16  C   UNL     1      17.389  41.351  42.542  0.00  0.00    +0.000 C 
ATOM     17  O   UNL     1      16.345  40.786  42.269  0.00  0.00    +0.000 OA
ATOM     18  OXT UNL     1      17.908  42.359  41.802  0.00  0.00    +0.000 OA
ENDBRANCH   8  16
ENDBRANCH   6   7
BRANCH   1  19
ATOM     19  O   UNL     1      22.596  41.000  48.273  0.00  0.00    +0.000 OA
BRANCH  19  22
ATOM     20  I   UNL     1      25.608  40.617  46.328  0.00  0.00    +0.000 I 
ATOM     21  C   UNL     1      25.072  41.476  48.181  0.00  0.00    +0.000 A 
ATOM     22  C   UNL     1      23.775  41.565  48.712  0.00  0.00    +0.000 A 
ATOM     23  C   UNL     1      26.135  42.141  48.822  0.00  0.00    +0.000 A 
ATOM     24  C   UNL     1      23.558  42.451  49.784  0.00  0.00    +0.000 A 
ATOM     25  C   UNL     1      25.901  42.987  49.904  0.00  0.00    +0.000 A 
ATOM     26  C   UNL     1      24.604  43.171  50.363  0.00  0.00    +0.000 A 
ENDBRANCH  19  22
ENDBRANCH   1  19
TORSDOF 6
ENDMDL
MODEL 2
REMARK VINA RESULT:      -7.9      2.733      7.439
REMARK  Name = 322398
REMARK  6 active torsions:
REMARK  status: ('A' for Active; 'I' for Inactive)
REMARK    1  A    between atoms: C_3  and  O_5
REMARK    2  A    between atoms: O_5  and  C_8
REMARK    3  A    between atoms: C_14  and  C_15
REMARK    4  A    between atoms: CA_16  and  N_17
REMARK    5  A    between atoms: CA_16  and  C_18
REMARK    6  A    between atoms: C_19  and  C_23
REMARK                            x       y       z     vdW  Elec       q    Type
REMARK                         _______ _______ _______ _____ _____    ______ ____
ROOT
ATOM      1  C   UNL     1      18.802  42.284  46.220  0.00  0.00    +0.000 A 
ATOM      2  C   UNL     1      19.980  42.604  45.549  0.00  0.00    +0.000 A 
ATOM      3  C   UNL     1      18.764  42.358  47.615  0.00  0.00    +0.000 A 
ATOM      4  C   UNL     1      21.168  42.740  46.278  0.00  0.00    +0.000 A 
ATOM      5  C   UNL     1      19.938  42.547  48.343  0.00  0.00    +0.000 A 
ATOM      6  C   UNL     1      21.161  42.660  47.674  0.00  0.00    +0.000 A 
ENDROOT
BRANCH   6   7
ATOM      7  C   UNL     1      22.407  42.498  48.433  0.00  0.00    +0.000 C 
ATOM      8  CA  UNL     1      23.586  41.997  48.029  0.00  0.00    +0.000 C 
BRANCH   8   9
ATOM      9  N   UNL     1      23.848  41.387  46.817  0.00  0.00    +0.000 N 
ATOM     10  C   UNL     1      23.603  40.052  46.562  0.00  0.00    +0.000 C 
ATOM     11  O   UNL     1      23.275  39.227  47.403  0.00  0.00    +0.000 OA
ATOM     12  H   UNL     1      24.231  41.937  46.095  0.00  0.00    +0.000 HD
BRANCH  10  13
ATOM     13  C   UNL     1      23.967  39.617  45.189  0.00  0.00    +0.000 C 
ATOM     14  C   UNL     1      23.307  40.266  43.992  0.00  0.00    +0.000 C 
ATOM     15  C   UNL     1      22.948  38.858  44.370  0.00  0.00    +0.000 C 
ENDBRANCH  10  13
ENDBRANCH   8   9
BRANCH   8  16
ATOM     16  C   UNL     1      24.732  42.166  48.984  0.00  0.00    +0.000 C 
ATOM     17  O   UNL     1      25.907  41.972  48.726  0.00  0.00    +0.000 OA
ATOM     18  OXT UNL     1      24.291  42.559  50.202  0.00  0.00    +0.000 OA
ENDBRANCH   8  16
ENDBRANCH   6   7
BRANCH   1  19
ATOM     19  O   UNL     1      17.636  41.873  45.628  0.00  0.00    +0.000 OA
BRANCH  19  22
ATOM     20  I   UNL     1      19.294  39.409  43.585  0.00  0.00    +0.000 I 
ATOM     21  C   UNL     1      17.637  39.460  44.893  0.00  0.00    +0.000 A 
ATOM     22  C   UNL     1      17.213  40.561  45.655  0.00  0.00    +0.000 A 
ATOM     23  C   UNL     1      17.039  38.201  45.093  0.00  0.00    +0.000 A 
ATOM     24  C   UNL     1      16.309  40.328  46.708  0.00  0.00    +0.000 A 
ATOM     25  C   UNL     1      16.120  38.002  46.122  0.00  0.00    +0.000 A 
ATOM     26  C   UNL     1      15.782  39.059  46.954  0.00  0.00    +0.000 A 
ENDBRANCH  19  22
ENDBRANCH   1  19
TORSDOF 6
ENDMDL
MODEL 3
REMARK VINA RESULT:      -7.9      1.509      2.099
REMARK  Name = 322398
REMARK  6 active torsions:
REMARK  status: ('A' for Active; 'I' for Inactive)
REMARK    1  A    between atoms: C_3  and  O_5
REMARK    2  A    between atoms: O_5  and  C_8
REMARK    3  A    between atoms: C_14  and  C_15
REMARK    4  A    between atoms: CA_16  and  N_17
REMARK    5  A    between atoms: CA_16  and  C_18
REMARK    6  A    between atoms: C_19  and  C_23
REMARK                            x       y       z     vdW  Elec       q    Type
REMARK                         _______ _______ _______ _____ _____    ______ ____
ROOT
ATOM      1  C   UNL     1      21.141  42.287  47.231  0.00  0.00    +0.000 A 
ATOM      2  C   UNL     1      19.800  41.976  47.438  0.00  0.00    +0.000 A 
ATOM      3  C   UNL     1      21.544  42.802  45.995  0.00  0.00    +0.000 A 
ATOM      4  C   UNL     1      18.929  41.935  46.342  0.00  0.00    +0.000 A 
ATOM      5  C   UNL     1      20.662  42.813  44.915  0.00  0.00    +0.000 A 
ATOM      6  C   UNL     1      19.369  42.303  45.067  0.00  0.00    +0.000 A 
ENDROOT
BRANCH   6   7
ATOM      7  C   UNL     1      18.581  41.987  43.869  0.00  0.00    +0.000 C 
ATOM      8  CA  UNL     1      17.651  41.033  43.694  0.00  0.00    +0.000 C 
BRANCH   8   9
ATOM      9  N   UNL     1      17.322  40.032  44.588  0.00  0.00    +0.000 N 
ATOM     10  C   UNL     1      18.005  38.835  44.684  0.00  0.00    +0.000 C 
ATOM     11  O   UNL     1      18.869  38.457  43.904  0.00  0.00    +0.000 OA
ATOM     12  H   UNL     1      16.558  40.182  45.191  0.00  0.00    +0.000 HD
BRANCH  10  13
ATOM     13  C   UNL     1      17.469  37.909  45.714  0.00  0.00    +0.000 C 
ATOM     14  C   UNL     1      16.735  36.656  45.292  0.00  0.00    +0.000 C 
ATOM     15  C   UNL     1      15.971  37.802  45.889  0.00  0.00    +0.000 C 
ENDBRANCH  10  13
ENDBRANCH   8   9
BRANCH   8  16
ATOM     16  C   UNL     1      16.871  41.107  42.414  0.00  0.00    +0.000 C 
ATOM     17  O   UNL     1      15.836  40.509  42.177  0.00  0.00    +0.000 OA
ATOM     18  OXT UNL     1      17.477  41.929  41.525  0.00  0.00    +0.000 OA
ENDBRANCH   8  16
ENDBRANCH   6   7
BRANCH   1  19
ATOM     19  O   UNL     1      22.148  42.118  48.145  0.00  0.00    +0.000 OA
BRANCH  19  22
ATOM     20  I   UNL     1      24.978  42.985  50.205  0.00  0.00    +0.000 I 
ATOM     21  C   UNL     1      24.657  41.986  48.372  0.00  0.00    +0.000 A 
ATOM     22  C   UNL     1      23.413  41.701  47.787  0.00  0.00    +0.000 A 
ATOM     23  C   UNL     1      25.831  41.446  47.812  0.00  0.00    +0.000 A 
ATOM     24  C   UNL     1      23.371  40.751  46.750  0.00  0.00    +0.000 A 
ATOM     25  C   UNL     1      25.768  40.532  46.762  0.00  0.00    +0.000 A 
ATOM     26  C   UNL     1      24.533  40.156  46.254  0.00  0.00    +0.000 A 
ENDBRANCH  19  22
ENDBRANCH   1  19
TORSDOF 6
ENDMDL
MODEL 4
REMARK VINA RESULT:      -7.6      3.188      7.550
REMARK  Name = 322398
REMARK  6 active torsions:
REMARK  status: ('A' for Active; 'I' for Inactive)
REMARK    1  A    between atoms: C_3  and  O_5
REMARK    2  A    between atoms: O_5  and  C_8
REMARK    3  A    between atoms: C_14  and  C_15
REMARK    4  A    between atoms: CA_16  and  N_17
REMARK    5  A    between atoms: CA_16  and  C_18
REMARK    6  A    between atoms: C_19  and  C_23
REMARK                            x       y       z     vdW  Elec       q    Type
REMARK                         _______ _______ _______ _____ _____    ______ ____
ROOT
ATOM      1  C   UNL     1      18.835  42.706  46.599  0.00  0.00    +0.000 A 
ATOM      2  C   UNL     1      19.928  42.956  45.772  0.00  0.00    +0.000 A 
ATOM      3  C   UNL     1      19.015  42.661  47.984  0.00  0.00    +0.000 A 
ATOM      4  C   UNL     1      21.220  42.900  46.311  0.00  0.00    +0.000 A 
ATOM      5  C   UNL     1      20.300  42.659  48.527  0.00  0.00    +0.000 A 
ATOM      6  C   UNL     1      21.413  42.699  47.681  0.00  0.00    +0.000 A 
ENDROOT
BRANCH   6   7
ATOM      7  C   UNL     1      22.731  42.339  48.219  0.00  0.00    +0.000 C 
ATOM      8  CA  UNL     1      23.755  41.718  47.608  0.00  0.00    +0.000 C 
BRANCH   8   9
ATOM      9  N   UNL     1      23.738  41.151  46.348  0.00  0.00    +0.000 N 
ATOM     10  C   UNL     1      23.349  39.850  46.099  0.00  0.00    +0.000 C 
ATOM     11  O   UNL     1      23.124  39.009  46.959  0.00  0.00    +0.000 OA
ATOM     12  H   UNL     1      24.019  41.708  45.586  0.00  0.00    +0.000 HD
BRANCH  10  13
ATOM     13  C   UNL     1      23.416  39.457  44.668  0.00  0.00    +0.000 C 
ATOM     14  C   UNL     1      22.721  40.300  43.622  0.00  0.00    +0.000 C 
ATOM     15  C   UNL     1      22.161  38.957  43.990  0.00  0.00    +0.000 C 
ENDBRANCH  10  13
ENDBRANCH   8   9
BRANCH   8  16
ATOM     16  C   UNL     1      25.049  41.689  48.367  0.00  0.00    +0.000 C 
ATOM     17  O   UNL     1      26.053  41.082  48.037  0.00  0.00    +0.000 OA
ATOM     18  OXT UNL     1      24.962  42.426  49.500  0.00  0.00    +0.000 OA
ENDBRANCH   8  16
ENDBRANCH   6   7
BRANCH   1  19
ATOM     19  O   UNL     1      17.552  42.475  46.174  0.00  0.00    +0.000 OA
BRANCH  19  22
ATOM     20  I   UNL     1      16.420  39.109  46.799  0.00  0.00    +0.000 I 
ATOM     21  C   UNL     1      16.896  40.283  45.110  0.00  0.00    +0.000 A 
ATOM     22  C   UNL     1      17.260  41.640  45.116  0.00  0.00    +0.000 A 
ATOM     23  C   UNL     1      16.657  39.631  43.885  0.00  0.00    +0.000 A 
ATOM     24  C   UNL     1      17.219  42.341  43.897  0.00  0.00    +0.000 A 
ATOM     25  C   UNL     1      16.653  40.340  42.686  0.00  0.00    +0.000 A 
ATOM     26  C   UNL     1      16.898  41.706  42.695  0.00  0.00    +0.000 A 
ENDBRANCH  19  22
ENDBRANCH   1  19
TORSDOF 6
ENDMDL
MODEL 5
REMARK VINA RESULT:      -7.1      1.684      2.271
REMARK  Name = 322398
REMARK  6 active torsions:
REMARK  status: ('A' for Active; 'I' for Inactive)
REMARK    1  A    between atoms: C_3  and  O_5
REMARK    2  A    between atoms: O_5  and  C_8
REMARK    3  A    between atoms: C_14  and  C_15
REMARK    4  A    between atoms: CA_16  and  N_17
REMARK    5  A    between atoms: CA_16  and  C_18
REMARK    6  A    between atoms: C_19  and  C_23
REMARK                            x       y       z     vdW  Elec       q    Type
REMARK                         _______ _______ _______ _____ _____    ______ ____
ROOT
ATOM      1  C   UNL     1      21.820  41.063  47.579  0.00  0.00    +0.000 A 
ATOM      2  C   UNL     1      20.884  40.098  47.218  0.00  0.00    +0.000 A 
ATOM      3  C   UNL     1      21.723  42.351  47.043  0.00  0.00    +0.000 A 
ATOM      4  C   UNL     1      20.027  40.346  46.138  0.00  0.00    +0.000 A 
ATOM      5  C   UNL     1      20.831  42.616  46.004  0.00  0.00    +0.000 A 
ATOM      6  C   UNL     1      20.033  41.587  45.494  0.00  0.00    +0.000 A 
ENDROOT
BRANCH   6   7
ATOM      7  C   UNL     1      19.376  41.772  44.193  0.00  0.00    +0.000 C 
ATOM      8  CA  UNL     1      18.240  41.223  43.733  0.00  0.00    +0.000 C 
BRANCH   8   9
ATOM      9  N   UNL     1      17.494  40.237  44.350  0.00  0.00    +0.000 N 
ATOM     10  C   UNL     1      16.608  40.479  45.382  0.00  0.00    +0.000 C 
ATOM     11  O   UNL     1      16.489  41.547  45.967  0.00  0.00    +0.000 OA
ATOM     12  H   UNL     1      17.602  39.310  44.036  0.00  0.00    +0.000 HD
BRANCH  10  13
ATOM     13  C   UNL     1      15.922  39.264  45.893  0.00  0.00    +0.000 C 
ATOM     14  C   UNL     1      16.269  38.722  47.261  0.00  0.00    +0.000 C 
ATOM     15  C   UNL     1      16.715  37.984  46.032  0.00  0.00    +0.000 C 
ENDBRANCH  10  13
ENDBRANCH   8   9
BRANCH   8  16
ATOM     16  C   UNL     1      17.719  41.782  42.440  0.00  0.00    +0.000 C 
ATOM     17  O   UNL     1      16.822  41.304  41.769  0.00  0.00    +0.000 OA
ATOM     18  OXT UNL     1      18.393  42.904  42.094  0.00  0.00    +0.000 OA
ENDBRANCH   8  16
ENDBRANCH   6   7
BRANCH   1  19
ATOM     19  O   UNL     1      22.878  40.868  48.429  0.00  0.00    +0.000 OA
BRANCH  19  22
ATOM     20  I   UNL     1      24.523  43.088  50.745  0.00  0.00    +0.000 I 
ATOM     21  C   UNL     1      24.939  42.260  48.848  0.00  0.00    +0.000 A 
ATOM     22  C   UNL     1      24.146  41.332  48.154  0.00  0.00    +0.000 A 
ATOM     23  C   UNL     1      26.218  42.590  48.358  0.00  0.00    +0.000 A 
ATOM     24  C   UNL     1      24.727  40.644  47.072  0.00  0.00    +0.000 A 
ATOM     25  C   UNL     1      26.760  41.917  47.264  0.00  0.00    +0.000 A 
ATOM     26  C   UNL     1      26.027  40.917  46.642  0.00  0.00    +0.000 A 
ENDBRANCH  19  22
ENDBRANCH   1  19
TORSDOF 6
ENDMDL
MODEL 6
REMARK VINA RESULT:      -7.1      2.889      7.752
REMARK  Name = 322398
REMARK  6 active torsions:
REMARK  status: ('A' for Active; 'I' for Inactive)
REMARK    1  A    between atoms: C_3  and  O_5
REMARK    2  A    between atoms: O_5  and  C_8
REMARK    3  A    between atoms: C_14  and  C_15
REMARK    4  A    between atoms: CA_16  and  N_17
REMARK    5  A    between atoms: CA_16  and  C_18
REMARK    6  A    between atoms: C_19  and  C_23
REMARK                            x       y       z     vdW  Elec       q    Type
REMARK                         _______ _______ _______ _____ _____    ______ ____
ROOT
ATOM      1  C   UNL     1      19.466  41.159  44.086  0.00  0.00    +0.000 A 
ATOM      2  C   UNL     1      20.263  40.590  43.096  0.00  0.00    +0.000 A 
ATOM      3  C   UNL     1      20.069  41.787  45.179  0.00  0.00    +0.000 A 
ATOM      4  C   UNL     1      21.633  40.423  43.333  0.00  0.00    +0.000 A 
ATOM      5  C   UNL     1      21.443  41.668  45.389  0.00  0.00    +0.000 A 
ATOM      6  C   UNL     1      22.220  40.915  44.503  0.00  0.00    +0.000 A 
ENDROOT
BRANCH   6   7
ATOM      7  C   UNL     1      23.567  40.498  44.912  0.00  0.00    +0.000 C 
ATOM      8  CA  UNL     1      24.245  40.804  46.031  0.00  0.00    +0.000 C 
BRANCH   8   9
ATOM      9  N   UNL     1      23.862  41.708  47.003  0.00  0.00    +0.000 N 
ATOM     10  C   UNL     1      23.772  41.398  48.346  0.00  0.00    +0.000 C 
ATOM     11  O   UNL     1      23.870  40.270  48.812  0.00  0.00    +0.000 OA
ATOM     12  H   UNL     1      23.641  42.626  46.721  0.00  0.00    +0.000 HD
BRANCH  10  13
ATOM     13  C   UNL     1      23.336  42.528  49.205  0.00  0.00    +0.000 C 
ATOM     14  C   UNL     1      24.360  43.493  49.759  0.00  0.00    +0.000 C 
ATOM     15  C   UNL     1      23.692  42.507  50.674  0.00  0.00    +0.000 C 
ENDBRANCH  10  13
ENDBRANCH   8   9
BRANCH   8  16
ATOM     16  C   UNL     1      25.521  40.044  46.252  0.00  0.00    +0.000 C 
ATOM     17  O   UNL     1      26.569  40.516  46.655  0.00  0.00    +0.000 OA
ATOM     18  OXT UNL     1      25.367  38.738  45.928  0.00  0.00    +0.000 OA
ENDBRANCH   8  16
ENDBRANCH   6   7
BRANCH   1  19
ATOM     19  O   UNL     1      18.095  41.153  44.105  0.00  0.00    +0.000 OA
BRANCH  19  22
ATOM     20  I   UNL     1      16.894  43.080  46.906  0.00  0.00    +0.000 I 
ATOM     21  C   UNL     1      16.883  41.052  46.315  0.00  0.00    +0.000 A 
ATOM     22  C   UNL     1      17.370  40.537  45.103  0.00  0.00    +0.000 A 
ATOM     23  C   UNL     1      16.169  40.214  47.193  0.00  0.00    +0.000 A 
ATOM     24  C   UNL     1      16.987  39.233  44.737  0.00  0.00    +0.000 A 
ATOM     25  C   UNL     1      15.829  38.915  46.822  0.00  0.00    +0.000 A 
ATOM     26  C   UNL     1      16.207  38.435  45.576  0.00  0.00    +0.000 A 
ENDBRANCH  19  22
ENDBRANCH   1  19
TORSDOF 6
ENDMDL
MODEL 7
REMARK VINA RESULT:      -6.5      1.691      2.136
REMARK  Name = 322398
REMARK  6 active torsions:
REMARK  status: ('A' for Active; 'I' for Inactive)
REMARK    1  A    between atoms: C_3  and  O_5
REMARK    2  A    between atoms: O_5  and  C_8
REMARK    3  A    between atoms: C_14  and  C_15
REMARK    4  A    between atoms: CA_16  and  N_17
REMARK    5  A    between atoms: CA_16  and  C_18
REMARK    6  A    between atoms: C_19  and  C_23
REMARK                            x       y       z     vdW  Elec       q    Type
REMARK                         _______ _______ _______ _____ _____    ______ ____
ROOT
ATOM      1  C   UNL     1      22.071  41.162  47.081  0.00  0.00    +0.000 A 
ATOM      2  C   UNL     1      21.663  42.383  46.550  0.00  0.00    +0.000 A 
ATOM      3  C   UNL     1      21.911  39.996  46.327  0.00  0.00    +0.000 A 
ATOM      4  C   UNL     1      20.871  42.397  45.395  0.00  0.00    +0.000 A 
ATOM      5  C   UNL     1      21.167  40.016  45.147  0.00  0.00    +0.000 A 
ATOM      6  C   UNL     1      20.576  41.209  44.718  0.00  0.00    +0.000 A 
ENDROOT
BRANCH   6   7
ATOM      7  C   UNL     1      19.519  41.156  43.700  0.00  0.00    +0.000 C 
ATOM      8  CA  UNL     1      18.300  41.719  43.713  0.00  0.00    +0.000 C 
BRANCH   8   9
ATOM      9  N   UNL     1      17.712  42.379  44.775  0.00  0.00    +0.000 N 
ATOM     10  C   UNL     1      17.221  41.741  45.898  0.00  0.00    +0.000 C 
ATOM     11  O   UNL     1      17.109  40.528  46.021  0.00  0.00    +0.000 OA
ATOM     12  H   UNL     1      17.639  43.360  44.729  0.00  0.00    +0.000 HD
BRANCH  10  13
ATOM     13  C   UNL     1      16.629  42.654  46.908  0.00  0.00    +0.000 C 
ATOM     14  C   UNL     1      16.623  44.147  46.663  0.00  0.00    +0.000 C 
ATOM     15  C   UNL     1      17.546  43.564  47.694  0.00  0.00    +0.000 C 
ENDBRANCH  10  13
ENDBRANCH   8   9
BRANCH   8  16
ATOM     16  C   UNL     1      17.535  41.657  42.423  0.00  0.00    +0.000 C 
ATOM     17  O   UNL     1      16.597  40.915  42.189  0.00  0.00    +0.000 OA
ATOM     18  OXT UNL     1      18.034  42.536  41.523  0.00  0.00    +0.000 OA
ENDBRANCH   8  16
ENDBRANCH   6   7
BRANCH   1  19
ATOM     19  O   UNL     1      22.620  40.978  48.323  0.00  0.00    +0.000 OA
BRANCH  19  22
ATOM     20  I   UNL     1      25.543  40.610  46.244  0.00  0.00    +0.000 I 
ATOM     21  C   UNL     1      25.083  41.483  48.111  0.00  0.00    +0.000 A 
ATOM     22  C   UNL     1      23.811  41.562  48.701  0.00  0.00    +0.000 A 
ATOM     23  C   UNL     1      26.167  42.167  48.695  0.00  0.00    +0.000 A 
ATOM     24  C   UNL     1      23.633  42.456  49.773  0.00  0.00    +0.000 A 
ATOM     25  C   UNL     1      25.972  43.022  49.778  0.00  0.00    +0.000 A 
ATOM     26  C   UNL     1      24.696  43.196  50.295  0.00  0.00    +0.000 A 
ENDBRANCH  19  22
ENDBRANCH   1  19
TORSDOF 6
ENDMDL
MODEL 8
REMARK VINA RESULT:      -6.1      1.659      2.234
REMARK  Name = 322398
REMARK  6 active torsions:
REMARK  status: ('A' for Active; 'I' for Inactive)
REMARK    1  A    between atoms: C_3  and  O_5
REMARK    2  A    between atoms: O_5  and  C_8
REMARK    3  A    between atoms: C_14  and  C_15
REMARK    4  A    between atoms: CA_16  and  N_17
REMARK    5  A    between atoms: CA_16  and  C_18
REMARK    6  A    between atoms: C_19  and  C_23
REMARK                            x       y       z     vdW  Elec       q    Type
REMARK                         _______ _______ _______ _____ _____    ______ ____
ROOT
ATOM      1  C   UNL     1      23.358  40.790  45.045  0.00  0.00    +0.000 A 
ATOM      2  C   UNL     1      22.913  40.007  43.983  0.00  0.00    +0.000 A 
ATOM      3  C   UNL     1      22.436  41.541  45.780  0.00  0.00    +0.000 A 
ATOM      4  C   UNL     1      21.608  40.180  43.505  0.00  0.00    +0.000 A 
ATOM      5  C   UNL     1      21.120  41.671  45.336  0.00  0.00    +0.000 A 
ATOM      6  C   UNL     1      20.723  41.051  44.147  0.00  0.00    +0.000 A 
ENDROOT
BRANCH   6   7
ATOM      7  C   UNL     1      19.472  41.475  43.505  0.00  0.00    +0.000 C 
ATOM      8  CA  UNL     1      18.218  41.046  43.727  0.00  0.00    +0.000 C 
BRANCH   8   9
ATOM      9  N   UNL     1      17.842  39.991  44.536  0.00  0.00    +0.000 N 
ATOM     10  C   UNL     1      17.510  40.129  45.870  0.00  0.00    +0.000 C 
ATOM     11  O   UNL     1      17.653  41.152  46.525  0.00  0.00    +0.000 OA
ATOM     12  H   UNL     1      17.808  39.091  44.138  0.00  0.00    +0.000 HD
BRANCH  10  13
ATOM     13  C   UNL     1      17.141  38.856  46.540  0.00  0.00    +0.000 C 
ATOM     14  C   UNL     1      15.961  38.054  46.038  0.00  0.00    +0.000 C 
ATOM     15  C   UNL     1      15.859  38.798  47.338  0.00  0.00    +0.000 C 
ENDBRANCH  10  13
ENDBRANCH   8   9
BRANCH   8  16
ATOM     16  C   UNL     1      17.129  41.833  43.057  0.00  0.00    +0.000 C 
ATOM     17  O   UNL     1      16.704  42.914  43.424  0.00  0.00    +0.000 OA
ATOM     18  OXT UNL     1      16.652  41.172  41.976  0.00  0.00    +0.000 OA
ENDBRANCH   8  16
ENDBRANCH   6   7
BRANCH   1  19
ATOM     19  O   UNL     1      24.662  40.917  45.449  0.00  0.00    +0.000 OA
BRANCH  19  22
ATOM     20  I   UNL     1      23.605  39.042  48.341  0.00  0.00    +0.000 I 
ATOM     21  C   UNL     1      24.643  40.843  47.970  0.00  0.00    +0.000 A 
ATOM     22  C   UNL     1      25.009  41.348  46.712  0.00  0.00    +0.000 A 
ATOM     23  C   UNL     1      25.120  41.469  49.138  0.00  0.00    +0.000 A 
ATOM     24  C   UNL     1      25.972  42.373  46.664  0.00  0.00    +0.000 A 
ATOM     25  C   UNL     1      26.049  42.505  49.066  0.00  0.00    +0.000 A 
ATOM     26  C   UNL     1      26.504  42.933  47.827  0.00  0.00    +0.000 A 
ENDBRANCH  19  22
ENDBRANCH   1  19
TORSDOF 6
ENDMDL
