MODEL 1
REMARK VINA RESULT:      -6.6      0.000      0.000
REMARK  Name = 323273
REMARK  9 active torsions:
REMARK  status: ('A' for Active; 'I' for Inactive)
REMARK    1  A    between atoms: C_3  and  O_5
REMARK    2  A    between atoms: O_5  and  C_8
REMARK    3  A    between atoms: C_14  and  C_15
REMARK    4  A    between atoms: C_16  and  N_17
REMARK    5  A    between atoms: C_16  and  C_18
REMARK    6  A    between atoms: C_19  and  C_23
REMARK    7  A    between atoms: N_21  and  CA_24
REMARK    8  A    between atoms: CA_24  and  C_27
REMARK    9  A    between atoms: C_27  and  O_30
REMARK                            x       y       z     vdW  Elec       q    Type
REMARK                         _______ _______ _______ _____ _____    ______ ____
ROOT
ATOM      1  C   UNK A   1      20.153  42.284  43.460  0.00  0.00    +0.000 C 
ATOM      2  C   UNK A   1      18.907  41.812  43.265  0.00  0.00    +0.000 C 
ENDROOT
BRANCH   1   8
ATOM      3  C   UNK A   1      22.420  41.259  46.911  0.00  0.00    +0.000 A 
ATOM      4  C   UNK A   1      21.711  42.460  46.890  0.00  0.00    +0.000 A 
ATOM      5  C   UNK A   1      22.593  40.536  45.727  0.00  0.00    +0.000 A 
ATOM      6  C   UNK A   1      21.045  42.854  45.722  0.00  0.00    +0.000 A 
ATOM      7  C   UNK A   1      21.910  40.919  44.568  0.00  0.00    +0.000 A 
ATOM      8  C   UNK A   1      21.093  42.057  44.572  0.00  0.00    +0.000 A 
BRANCH   3   9
ATOM      9  O   UNK A   1      22.905  40.820  48.128  0.00  0.00    +0.000 OA
BRANCH   9  12
ATOM     10 BR   UNK A   1      25.669  40.624  46.748  0.00  0.00    +0.000 Br
ATOM     11  C   UNK A   1      25.169  41.598  48.297  0.00  0.00    +0.000 A 
ATOM     12  C   UNK A   1      23.851  41.605  48.770  0.00  0.00    +0.000 A 
ATOM     13  C   UNK A   1      26.164  42.325  48.966  0.00  0.00    +0.000 A 
ATOM     14  C   UNK A   1      23.529  42.429  49.861  0.00  0.00    +0.000 A 
ATOM     15  C   UNK A   1      25.844  43.076  50.097  0.00  0.00    +0.000 A 
ATOM     16  C   UNK A   1      24.525  43.139  50.536  0.00  0.00    +0.000 A 
ENDBRANCH   9  12
ENDBRANCH   3   9
ENDBRANCH   1   8
BRANCH   2  17
ATOM     17  N   UNK A   1      18.268  40.870  44.057  0.00  0.00    +0.000 N 
ATOM     18  C   UNK A   0      18.581  39.524  43.971  0.00  0.00    +0.000 C 
ATOM     19  O   UNK A   0      19.326  39.048  43.117  0.00  0.00    +0.000 OA
ATOM     20  H   UNK A   1      17.578  41.165  44.694  0.00  0.00    +0.000 HD
BRANCH  18  21
ATOM     21  C   UNK A   0      17.861  38.601  44.886  0.00  0.00    +0.000 A 
ATOM     22  C   UNK A   0      17.164  39.170  45.961  0.00  0.00    +0.000 A 
ATOM     23  C   UNK A   0      17.785  37.225  44.656  0.00  0.00    +0.000 A 
ATOM     24  C   UNK A   0      16.376  38.373  46.789  0.00  0.00    +0.000 A 
ATOM     25  C   UNK A   0      16.987  36.430  45.488  0.00  0.00    +0.000 A 
ATOM     26  C   UNK A   0      16.280  37.006  46.547  0.00  0.00    +0.000 A 
ENDBRANCH  18  21
ENDBRANCH   2  17
BRANCH   2  27
ATOM     27  C   UNK A   1      18.156  42.403  42.090  0.00  0.00    +0.000 C 
ATOM     28  O   UNK A   1      18.337  43.548  41.693  0.00  0.00    +0.000 OA
ATOM     29  N   GLY A   2      17.276  41.529  41.488  0.00  0.00    +0.000 N 
ATOM     30  H   GLY A   2      17.164  40.626  41.864  0.00  0.00    +0.000 HD
BRANCH  29  31
ATOM     31  CA  GLY A   2      16.508  41.908  40.307  0.00  0.00    +0.000 C 
BRANCH  31  32
ATOM     32  C   GLY A   2      15.134  41.237  40.250  0.00  0.00    +0.000 C 
BRANCH  32  33
ATOM     33  O   GLY A   2      14.821  40.883  38.904  0.00  0.00    +0.000 OA
ATOM     34  H   GLY A   2      15.180  40.004  38.708  0.00  0.00    +0.000 HD
ENDBRANCH  32  33
ENDBRANCH  31  32
ENDBRANCH  29  31
ENDBRANCH   2  27
TORSDOF 9
ENDMDL
MODEL 2
REMARK VINA RESULT:      -5.2      2.129      3.671
REMARK  Name = 323273
REMARK  9 active torsions:
REMARK  status: ('A' for Active; 'I' for Inactive)
REMARK    1  A    between atoms: C_3  and  O_5
REMARK    2  A    between atoms: O_5  and  C_8
REMARK    3  A    between atoms: C_14  and  C_15
REMARK    4  A    between atoms: C_16  and  N_17
REMARK    5  A    between atoms: C_16  and  C_18
REMARK    6  A    between atoms: C_19  and  C_23
REMARK    7  A    between atoms: N_21  and  CA_24
REMARK    8  A    between atoms: CA_24  and  C_27
REMARK    9  A    between atoms: C_27  and  O_30
REMARK                            x       y       z     vdW  Elec       q    Type
REMARK                         _______ _______ _______ _____ _____    ______ ____
ROOT
ATOM      1  C   UNK A   1      20.762  39.188  44.040  0.00  0.00    +0.000 C 
ATOM      2  C   UNK A   1      19.572  39.682  44.432  0.00  0.00    +0.000 C 
ENDROOT
BRANCH   1   8
ATOM      3  C   UNK A   1      24.393  40.174  46.027  0.00  0.00    +0.000 A 
ATOM      4  C   UNK A   1      23.835  41.084  45.131  0.00  0.00    +0.000 A 
ATOM      5  C   UNK A   1      23.911  38.862  46.072  0.00  0.00    +0.000 A 
ATOM      6  C   UNK A   1      22.696  40.728  44.396  0.00  0.00    +0.000 A 
ATOM      7  C   UNK A   1      22.762  38.515  45.354  0.00  0.00    +0.000 A 
ATOM      8  C   UNK A   1      22.119  39.462  44.547  0.00  0.00    +0.000 A 
BRANCH   3   9
ATOM      9  O   UNK A   1      25.398  40.625  46.862  0.00  0.00    +0.000 OA
BRANCH   9  12
ATOM     10 BR   UNK A   1      27.864  41.461  48.533  0.00  0.00    +0.000 Br
ATOM     11  C   UNK A   1      26.031  41.854  48.823  0.00  0.00    +0.000 A 
ATOM     12  C   UNK A   1      25.036  41.422  47.937  0.00  0.00    +0.000 A 
ATOM     13  C   UNK A   1      25.691  42.600  49.960  0.00  0.00    +0.000 A 
ATOM     14  C   UNK A   1      23.713  41.834  48.157  0.00  0.00    +0.000 A 
ATOM     15  C   UNK A   1      24.360  42.935  50.207  0.00  0.00    +0.000 A 
ATOM     16  C   UNK A   1      23.373  42.564  49.299  0.00  0.00    +0.000 A 
ENDBRANCH   9  12
ENDBRANCH   3   9
ENDBRANCH   1   8
BRANCH   2  17
ATOM     17  N   UNK A   1      19.361  40.502  45.530  0.00  0.00    +0.000 N 
ATOM     18  C   UNK A   0      19.319  41.881  45.403  0.00  0.00    +0.000 C 
ATOM     19  O   UNK A   0      19.594  42.481  44.366  0.00  0.00    +0.000 OA
ATOM     20  H   UNK A   1      19.240  40.096  46.418  0.00  0.00    +0.000 HD
BRANCH  18  21
ATOM     21  C   UNK A   0      19.057  42.666  46.636  0.00  0.00    +0.000 A 
ATOM     22  C   UNK A   0      18.064  43.654  46.575  0.00  0.00    +0.000 A 
ATOM     23  C   UNK A   0      19.692  42.391  47.851  0.00  0.00    +0.000 A 
ATOM     24  C   UNK A   0      17.690  44.349  47.724  0.00  0.00    +0.000 A 
ATOM     25  C   UNK A   0      19.307  43.087  49.003  0.00  0.00    +0.000 A 
ATOM     26  C   UNK A   0      18.305  44.058  48.939  0.00  0.00    +0.000 A 
ENDBRANCH  18  21
ENDBRANCH   2  17
BRANCH   2  27
ATOM     27  C   UNK A   1      18.389  39.317  43.559  0.00  0.00    +0.000 C 
ATOM     28  O   UNK A   1      18.102  38.159  43.278  0.00  0.00    +0.000 OA
ATOM     29  N   GLY A   2      17.646  40.399  43.138  0.00  0.00    +0.000 N 
ATOM     30  H   GLY A   2      17.937  41.307  43.384  0.00  0.00    +0.000 HD
BRANCH  29  31
ATOM     31  CA  GLY A   2      16.439  40.233  42.335  0.00  0.00    +0.000 C 
BRANCH  31  32
ATOM     32  C   GLY A   2      16.236  41.363  41.324  0.00  0.00    +0.000 C 
BRANCH  32  33
ATOM     33  O   GLY A   2      15.053  41.128  40.562  0.00  0.00    +0.000 OA
ATOM     34  H   GLY A   2      15.005  41.767  39.834  0.00  0.00    +0.000 HD
ENDBRANCH  32  33
ENDBRANCH  31  32
ENDBRANCH  29  31
ENDBRANCH   2  27
TORSDOF 9
ENDMDL
MODEL 3
REMARK VINA RESULT:      -5.2      2.653      4.413
REMARK  Name = 323273
REMARK  9 active torsions:
REMARK  status: ('A' for Active; 'I' for Inactive)
REMARK    1  A    between atoms: C_3  and  O_5
REMARK    2  A    between atoms: O_5  and  C_8
REMARK    3  A    between atoms: C_14  and  C_15
REMARK    4  A    between atoms: C_16  and  N_17
REMARK    5  A    between atoms: C_16  and  C_18
REMARK    6  A    between atoms: C_19  and  C_23
REMARK    7  A    between atoms: N_21  and  CA_24
REMARK    8  A    between atoms: CA_24  and  C_27
REMARK    9  A    between atoms: C_27  and  O_30
REMARK                            x       y       z     vdW  Elec       q    Type
REMARK                         _______ _______ _______ _____ _____    ______ ____
ROOT
ATOM      1  C   UNK A   1      20.583  39.101  44.311  0.00  0.00    +0.000 C 
ATOM      2  C   UNK A   1      19.340  39.579  44.512  0.00  0.00    +0.000 C 
ENDROOT
BRANCH   1   8
ATOM      3  C   UNK A   1      24.345  40.582  45.639  0.00  0.00    +0.000 A 
ATOM      4  C   UNK A   1      23.208  41.378  45.778  0.00  0.00    +0.000 A 
ATOM      5  C   UNK A   1      24.292  39.434  44.843  0.00  0.00    +0.000 A 
ATOM      6  C   UNK A   1      21.984  40.942  45.252  0.00  0.00    +0.000 A 
ATOM      7  C   UNK A   1      23.066  38.989  44.337  0.00  0.00    +0.000 A 
ATOM      8  C   UNK A   1      21.895  39.718  44.579  0.00  0.00    +0.000 A 
BRANCH   3   9
ATOM      9  O   UNK A   1      25.482  40.959  46.326  0.00  0.00    +0.000 OA
BRANCH   9  12
ATOM     10 BR   UNK A   1      23.635  39.326  48.196  0.00  0.00    +0.000 Br
ATOM     11  C   UNK A   1      24.477  40.997  48.505  0.00  0.00    +0.000 A 
ATOM     12  C   UNK A   1      25.320  41.584  47.553  0.00  0.00    +0.000 A 
ATOM     13  C   UNK A   1      24.235  41.639  49.727  0.00  0.00    +0.000 A 
ATOM     14  C   UNK A   1      25.991  42.771  47.887  0.00  0.00    +0.000 A 
ATOM     15  C   UNK A   1      24.848  42.859  50.013  0.00  0.00    +0.000 A 
ATOM     16  C   UNK A   1      25.736  43.418  49.099  0.00  0.00    +0.000 A 
ENDBRANCH   9  12
ENDBRANCH   3   9
ENDBRANCH   1   8
BRANCH   2  17
ATOM     17  N   UNK A   1      19.028  40.765  45.160  0.00  0.00    +0.000 N 
ATOM     18  C   UNK A   0      18.258  40.777  46.311  0.00  0.00    +0.000 C 
ATOM     19  O   UNK A   0      17.689  39.785  46.763  0.00  0.00    +0.000 OA
ATOM     20  H   UNK A   1      19.360  41.616  44.793  0.00  0.00    +0.000 HD
BRANCH  18  21
ATOM     21  C   UNK A   0      18.006  42.097  46.944  0.00  0.00    +0.000 A 
ATOM     22  C   UNK A   0      18.999  42.609  47.789  0.00  0.00    +0.000 A 
ATOM     23  C   UNK A   0      16.875  42.865  46.652  0.00  0.00    +0.000 A 
ATOM     24  C   UNK A   0      18.878  43.889  48.325  0.00  0.00    +0.000 A 
ATOM     25  C   UNK A   0      16.762  44.154  47.187  0.00  0.00    +0.000 A 
ATOM     26  C   UNK A   0      17.764  44.665  48.016  0.00  0.00    +0.000 A 
ENDBRANCH  18  21
ENDBRANCH   2  17
BRANCH   2  27
ATOM     27  C   UNK A   1      18.213  38.741  43.945  0.00  0.00    +0.000 C 
ATOM     28  O   UNK A   1      17.392  39.182  43.149  0.00  0.00    +0.000 OA
ATOM     29  N   GLY A   2      18.214  37.432  44.377  0.00  0.00    +0.000 N 
ATOM     30  H   GLY A   2      18.892  37.142  45.029  0.00  0.00    +0.000 HD
BRANCH  29  31
ATOM     31  CA  GLY A   2      17.236  36.466  43.891  0.00  0.00    +0.000 C 
BRANCH  31  32
ATOM     32  C   GLY A   2      16.534  35.709  45.021  0.00  0.00    +0.000 C 
BRANCH  32  33
ATOM     33  O   GLY A   2      17.442  35.489  46.099  0.00  0.00    +0.000 OA
ATOM     34  H   GLY A   2      18.291  35.913  45.899  0.00  0.00    +0.000 HD
ENDBRANCH  32  33
ENDBRANCH  31  32
ENDBRANCH  29  31
ENDBRANCH   2  27
TORSDOF 9
ENDMDL
MODEL 4
REMARK VINA RESULT:      -4.2      1.259      1.940
REMARK  Name = 323273
REMARK  9 active torsions:
REMARK  status: ('A' for Active; 'I' for Inactive)
REMARK    1  A    between atoms: C_3  and  O_5
REMARK    2  A    between atoms: O_5  and  C_8
REMARK    3  A    between atoms: C_14  and  C_15
REMARK    4  A    between atoms: C_16  and  N_17
REMARK    5  A    between atoms: C_16  and  C_18
REMARK    6  A    between atoms: C_19  and  C_23
REMARK    7  A    between atoms: N_21  and  CA_24
REMARK    8  A    between atoms: CA_24  and  C_27
REMARK    9  A    between atoms: C_27  and  O_30
REMARK                            x       y       z     vdW  Elec       q    Type
REMARK                         _______ _______ _______ _____ _____    ______ ____
ROOT
ATOM      1  C   UNK A   1      20.304  41.804  43.257  0.00  0.00    +0.000 C 
ATOM      2  C   UNK A   1      19.079  41.294  43.026  0.00  0.00    +0.000 C 
ENDROOT
BRANCH   1   8
ATOM      3  C   UNK A   1      23.726  40.936  45.632  0.00  0.00    +0.000 A 
ATOM      4  C   UNK A   1      23.428  40.124  44.538  0.00  0.00    +0.000 A 
ATOM      5  C   UNK A   1      22.776  41.854  46.091  0.00  0.00    +0.000 A 
ATOM      6  C   UNK A   1      22.249  40.340  43.811  0.00  0.00    +0.000 A 
ATOM      7  C   UNK A   1      21.611  42.083  45.353  0.00  0.00    +0.000 A 
ATOM      8  C   UNK A   1      21.362  41.358  44.180  0.00  0.00    +0.000 A 
BRANCH   3   9
ATOM      9  O   UNK A   1      24.977  40.812  46.204  0.00  0.00    +0.000 OA
BRANCH   9  12
ATOM     10 BR   UNK A   1      23.491  39.444  48.551  0.00  0.00    +0.000 Br
ATOM     11  C   UNK A   1      24.573  41.002  48.563  0.00  0.00    +0.000 A 
ATOM     12  C   UNK A   1      25.208  41.468  47.404  0.00  0.00    +0.000 A 
ATOM     13  C   UNK A   1      24.728  41.685  49.777  0.00  0.00    +0.000 A 
ATOM     14  C   UNK A   1      26.075  42.567  47.506  0.00  0.00    +0.000 A 
ATOM     15  C   UNK A   1      25.532  42.823  49.845  0.00  0.00    +0.000 A 
ATOM     16  C   UNK A   1      26.216  43.256  48.713  0.00  0.00    +0.000 A 
ENDBRANCH   9  12
ENDBRANCH   3   9
ENDBRANCH   1   8
BRANCH   2  17
ATOM     17  N   UNK A   1      18.587  40.109  43.554  0.00  0.00    +0.000 N 
ATOM     18  C   UNK A   0      17.880  40.089  44.745  0.00  0.00    +0.000 C 
ATOM     19  O   UNK A   0      17.754  41.065  45.482  0.00  0.00    +0.000 OA
ATOM     20  H   UNK A   1      18.743  39.265  43.072  0.00  0.00    +0.000 HD
BRANCH  18  21
ATOM     21  C   UNK A   0      17.370  38.773  45.208  0.00  0.00    +0.000 A 
ATOM     22  C   UNK A   0      17.719  37.643  44.456  0.00  0.00    +0.000 A 
ATOM     23  C   UNK A   0      16.648  38.623  46.395  0.00  0.00    +0.000 A 
ATOM     24  C   UNK A   0      17.370  36.368  44.896  0.00  0.00    +0.000 A 
ATOM     25  C   UNK A   0      16.305  37.340  46.836  0.00  0.00    +0.000 A 
ATOM     26  C   UNK A   0      16.671  36.216  46.091  0.00  0.00    +0.000 A 
ENDBRANCH  18  21
ENDBRANCH   2  17
BRANCH   2  27
ATOM     27  C   UNK A   1      18.177  42.123  42.135  0.00  0.00    +0.000 C 
ATOM     28  O   UNK A   1      18.264  43.343  42.053  0.00  0.00    +0.000 OA
ATOM     29  N   GLY A   2      17.275  41.381  41.403  0.00  0.00    +0.000 N 
ATOM     30  H   GLY A   2      17.245  40.405  41.525  0.00  0.00    +0.000 HD
BRANCH  29  31
ATOM     31  CA  GLY A   2      16.365  42.007  40.450  0.00  0.00    +0.000 C 
BRANCH  31  32
ATOM     32  C   GLY A   2      15.065  41.222  40.264  0.00  0.00    +0.000 C 
BRANCH  32  33
ATOM     33  O   GLY A   2      14.876  40.911  38.885  0.00  0.00    +0.000 OA
ATOM     34  H   GLY A   2      15.437  41.487  38.343  0.00  0.00    +0.000 HD
ENDBRANCH  32  33
ENDBRANCH  31  32
ENDBRANCH  29  31
ENDBRANCH   2  27
TORSDOF 9
ENDMDL
MODEL 5
REMARK VINA RESULT:      -3.7      1.431      1.977
REMARK  Name = 323273
REMARK  9 active torsions:
REMARK  status: ('A' for Active; 'I' for Inactive)
REMARK    1  A    between atoms: C_3  and  O_5
REMARK    2  A    between atoms: O_5  and  C_8
REMARK    3  A    between atoms: C_14  and  C_15
REMARK    4  A    between atoms: C_16  and  N_17
REMARK    5  A    between atoms: C_16  and  C_18
REMARK    6  A    between atoms: C_19  and  C_23
REMARK    7  A    between atoms: N_21  and  CA_24
REMARK    8  A    between atoms: CA_24  and  C_27
REMARK    9  A    between atoms: C_27  and  O_30
REMARK                            x       y       z     vdW  Elec       q    Type
REMARK                         _______ _______ _______ _____ _____    ______ ____
ROOT
ATOM      1  C   UNK A   1      19.734  42.336  44.087  0.00  0.00    +0.000 C 
ATOM      2  C   UNK A   1      18.886  41.545  43.402  0.00  0.00    +0.000 C 
ENDROOT
BRANCH   1   8
ATOM      3  C   UNK A   1      22.057  42.206  47.649  0.00  0.00    +0.000 A 
ATOM      4  C   UNK A   1      22.562  41.634  46.481  0.00  0.00    +0.000 A 
ATOM      5  C   UNK A   1      20.712  42.578  47.711  0.00  0.00    +0.000 A 
ATOM      6  C   UNK A   1      21.764  41.582  45.330  0.00  0.00    +0.000 A 
ATOM      7  C   UNK A   1      19.923  42.546  46.556  0.00  0.00    +0.000 A 
ATOM      8  C   UNK A   1      20.460  42.090  45.345  0.00  0.00    +0.000 A 
BRANCH   3   9
ATOM      9  O   UNK A   1      22.933  42.403  48.699  0.00  0.00    +0.000 OA
BRANCH   9  12
ATOM     10 BR   UNK A   1      24.678  43.227  51.119  0.00  0.00    +0.000 Br
ATOM     11  C   UNK A   1      25.198  42.401  49.492  0.00  0.00    +0.000 A 
ATOM     12  C   UNK A   1      24.262  42.060  48.507  0.00  0.00    +0.000 A 
ATOM     13  C   UNK A   1      26.560  42.133  49.297  0.00  0.00    +0.000 A 
ATOM     14  C   UNK A   1      24.702  41.359  47.373  0.00  0.00    +0.000 A 
ATOM     15  C   UNK A   1      26.992  41.506  48.128  0.00  0.00    +0.000 A 
ATOM     16  C   UNK A   1      26.062  41.107  47.173  0.00  0.00    +0.000 A 
ENDBRANCH   9  12
ENDBRANCH   3   9
ENDBRANCH   1   8
BRANCH   2  17
ATOM     17  N   UNK A   1      18.603  40.220  43.699  0.00  0.00    +0.000 N 
ATOM     18  C   UNK A   0      17.713  39.881  44.705  0.00  0.00    +0.000 C 
ATOM     19  O   UNK A   0      17.222  40.693  45.487  0.00  0.00    +0.000 OA
ATOM     20  H   UNK A   1      19.043  39.506  43.185  0.00  0.00    +0.000 HD
BRANCH  18  21
ATOM     21  C   UNK A   0      17.456  38.434  44.923  0.00  0.00    +0.000 A 
ATOM     22  C   UNK A   0      16.800  38.064  46.105  0.00  0.00    +0.000 A 
ATOM     23  C   UNK A   0      17.759  37.466  43.962  0.00  0.00    +0.000 A 
ATOM     24  C   UNK A   0      16.428  36.739  46.319  0.00  0.00    +0.000 A 
ATOM     25  C   UNK A   0      17.377  36.137  44.179  0.00  0.00    +0.000 A 
ATOM     26  C   UNK A   0      16.708  35.777  45.351  0.00  0.00    +0.000 A 
ENDBRANCH  18  21
ENDBRANCH   2  17
BRANCH   2  27
ATOM     27  C   UNK A   1      18.175  42.196  42.234  0.00  0.00    +0.000 C 
ATOM     28  O   UNK A   1      18.444  43.325  41.838  0.00  0.00    +0.000 OA
ATOM     29  N   GLY A   2      17.226  41.396  41.637  0.00  0.00    +0.000 N 
ATOM     30  H   GLY A   2      17.045  40.503  42.012  0.00  0.00    +0.000 HD
BRANCH  29  31
ATOM     31  CA  GLY A   2      16.481  41.837  40.463  0.00  0.00    +0.000 C 
BRANCH  31  32
ATOM     32  C   GLY A   2      15.136  41.125  40.308  0.00  0.00    +0.000 C 
BRANCH  32  33
ATOM     33  O   GLY A   2      14.845  40.929  38.925  0.00  0.00    +0.000 OA
ATOM     34  H   GLY A   2      14.008  40.448  38.835  0.00  0.00    +0.000 HD
ENDBRANCH  32  33
ENDBRANCH  31  32
ENDBRANCH  29  31
ENDBRANCH   2  27
TORSDOF 9
ENDMDL
