MODEL 1
REMARK VINA RESULT:      -8.3      0.000      0.000
REMARK  Name = 322234
REMARK  8 active torsions:
REMARK  status: ('A' for Active; 'I' for Inactive)
REMARK    1  A    between atoms: C_3  and  O_5
REMARK    2  A    between atoms: O_5  and  C_8
REMARK    3  A    between atoms: C_14  and  C_15
REMARK    4  A    between atoms: CA_16  and  N_17
REMARK    5  A    between atoms: CA_16  and  C_18
REMARK    6  A    between atoms: C_19  and  C_23
REMARK    7  A    between atoms: C_23  and  C_24
REMARK    8  A    between atoms: C_24  and  C_25
REMARK                            x       y       z     vdW  Elec       q    Type
REMARK                         _______ _______ _______ _____ _____    ______ ____
ROOT
ATOM      1  C   UNL     1      25.512  40.557  46.889  0.00  0.00    +0.000 C 
ATOM      2  CA  UNL     1      25.257  41.515  47.795  0.00  0.00    +0.000 C 
ENDROOT
BRANCH   1   8
ATOM      3  C   UNL     1      22.511  39.286  44.180  0.00  0.00    +0.000 A 
ATOM      4  C   UNL     1      23.001  38.373  45.116  0.00  0.00    +0.000 A 
ATOM      5  C   UNL     1      23.201  40.480  43.953  0.00  0.00    +0.000 A 
ATOM      6  C   UNL     1      24.077  38.732  45.945  0.00  0.00    +0.000 A 
ATOM      7  C   UNL     1      24.238  40.852  44.806  0.00  0.00    +0.000 A 
ATOM      8  C   UNL     1      24.653  40.004  45.837  0.00  0.00    +0.000 A 
BRANCH   3   9
ATOM      9  O   UNL     1      21.323  39.000  43.538  0.00  0.00    +0.000 OA
BRANCH   9  12
ATOM     10 BR   UNL     1      18.430  37.936  43.917  0.00  0.00    +0.000 Br
ATOM     11  C   UNL     1      19.020  39.702  43.555  0.00  0.00    +0.000 A 
ATOM     12  C   UNL     1      20.380  40.019  43.453  0.00  0.00    +0.000 A 
ATOM     13  C   UNL     1      18.042  40.698  43.393  0.00  0.00    +0.000 A 
ATOM     14  C   UNL     1      20.743  41.365  43.280  0.00  0.00    +0.000 A 
ATOM     15  C   UNL     1      18.422  42.018  43.146  0.00  0.00    +0.000 A 
ATOM     16  C   UNL     1      19.771  42.353  43.103  0.00  0.00    +0.000 A 
ENDBRANCH   9  12
ENDBRANCH   3   9
ENDBRANCH   1   8
BRANCH   2  17
ATOM     17  N   UNL     1      24.063  42.199  47.906  0.00  0.00    +0.000 N 
ATOM     18  C   UNL     1      22.834  41.587  48.103  0.00  0.00    +0.000 C 
ATOM     19  O   UNL     1      22.689  40.393  48.316  0.00  0.00    +0.000 OA
ATOM     20  H   UNL     1      24.084  43.181  47.842  0.00  0.00    +0.000 HD
BRANCH  18  21
ATOM     21  C   UNL     1      21.675  42.558  48.198  0.00  0.00    +0.000 C 
BRANCH  21  22
ATOM     22  C   UNL     1      20.926  42.673  46.875  0.00  0.00    +0.000 C 
BRANCH  22  23
ATOM     23  C   UNL     1      19.641  41.886  46.872  0.00  0.00    +0.000 A 
ATOM     24  C   UNL     1      19.658  40.489  47.005  0.00  0.00    +0.000 A 
ATOM     25  C   UNL     1      18.410  42.543  46.738  0.00  0.00    +0.000 A 
ATOM     26  C   UNL     1      18.463  39.764  47.014  0.00  0.00    +0.000 A 
ATOM     27  C   UNL     1      17.216  41.818  46.750  0.00  0.00    +0.000 A 
ATOM     28  C   UNL     1      17.247  40.432  46.886  0.00  0.00    +0.000 A 
ATOM     29 CL   UNL     1      15.777  39.539  46.896  0.00  0.00    +0.000 Cl
ENDBRANCH  22  23
ENDBRANCH  21  22
ENDBRANCH  18  21
ENDBRANCH   2  17
BRANCH   2  30
ATOM     30  C   UNL     1      26.404  41.890  48.694  0.00  0.00    +0.000 C 
ATOM     31  O   UNL     1      27.502  41.360  48.697  0.00  0.00    +0.000 OA
ATOM     32  OXT UNL     1      26.076  42.903  49.530  0.00  0.00    +0.000 OA
ENDBRANCH   2  30
TORSDOF 8
ENDMDL
MODEL 2
REMARK VINA RESULT:      -8.2      3.119      6.690
REMARK  Name = 322234
REMARK  8 active torsions:
REMARK  status: ('A' for Active; 'I' for Inactive)
REMARK    1  A    between atoms: C_3  and  O_5
REMARK    2  A    between atoms: O_5  and  C_8
REMARK    3  A    between atoms: C_14  and  C_15
REMARK    4  A    between atoms: CA_16  and  N_17
REMARK    5  A    between atoms: CA_16  and  C_18
REMARK    6  A    between atoms: C_19  and  C_23
REMARK    7  A    between atoms: C_23  and  C_24
REMARK    8  A    between atoms: C_24  and  C_25
REMARK                            x       y       z     vdW  Elec       q    Type
REMARK                         _______ _______ _______ _____ _____    ______ ____
ROOT
ATOM      1  C   UNL     1      20.067  41.941  43.454  0.00  0.00    +0.000 C 
ATOM      2  CA  UNL     1      18.728  41.979  43.559  0.00  0.00    +0.000 C 
ENDROOT
BRANCH   1   8
ATOM      3  C   UNL     1      22.511  41.015  46.789  0.00  0.00    +0.000 A 
ATOM      4  C   UNL     1      22.028  42.318  46.651  0.00  0.00    +0.000 A 
ATOM      5  C   UNL     1      22.437  40.133  45.708  0.00  0.00    +0.000 A 
ATOM      6  C   UNL     1      21.317  42.681  45.496  0.00  0.00    +0.000 A 
ATOM      7  C   UNL     1      21.692  40.480  44.583  0.00  0.00    +0.000 A 
ATOM      8  C   UNL     1      21.086  41.737  44.487  0.00  0.00    +0.000 A 
BRANCH   3   9
ATOM      9  O   UNL     1      23.008  40.621  48.016  0.00  0.00    +0.000 OA
BRANCH   9  12
ATOM     10 BR   UNL     1      25.792  40.594  46.642  0.00  0.00    +0.000 Br
ATOM     11  C   UNL     1      25.224  41.546  48.180  0.00  0.00    +0.000 A 
ATOM     12  C   UNL     1      23.905  41.476  48.646  0.00  0.00    +0.000 A 
ATOM     13  C   UNL     1      26.173  42.340  48.845  0.00  0.00    +0.000 A 
ATOM     14  C   UNL     1      23.535  42.285  49.733  0.00  0.00    +0.000 A 
ATOM     15  C   UNL     1      25.803  43.078  49.971  0.00  0.00    +0.000 A 
ATOM     16  C   UNL     1      24.483  43.061  50.405  0.00  0.00    +0.000 A 
ENDBRANCH   9  12
ENDBRANCH   3   9
ENDBRANCH   1   8
BRANCH   2  17
ATOM     17  N   UNL     1      18.024  41.821  44.736  0.00  0.00    +0.000 N 
ATOM     18  C   UNL     1      17.150  42.766  45.250  0.00  0.00    +0.000 C 
ATOM     19  O   UNL     1      16.819  43.785  44.663  0.00  0.00    +0.000 OA
ATOM     20  H   UNL     1      18.150  40.986  45.242  0.00  0.00    +0.000 HD
BRANCH  18  21
ATOM     21  C   UNL     1      16.495  42.351  46.552  0.00  0.00    +0.000 C 
BRANCH  21  22
ATOM     22  C   UNL     1      17.306  41.282  47.275  0.00  0.00    +0.000 C 
BRANCH  22  23
ATOM     23  C   UNL     1      17.149  39.920  46.647  0.00  0.00    +0.000 A 
ATOM     24  C   UNL     1      15.939  39.219  46.753  0.00  0.00    +0.000 A 
ATOM     25  C   UNL     1      18.215  39.339  45.945  0.00  0.00    +0.000 A 
ATOM     26  C   UNL     1      15.794  37.962  46.159  0.00  0.00    +0.000 A 
ATOM     27  C   UNL     1      18.068  38.084  45.349  0.00  0.00    +0.000 A 
ATOM     28  C   UNL     1      16.860  37.401  45.460  0.00  0.00    +0.000 A 
ATOM     29 CL   UNL     1      16.681  35.853  44.729  0.00  0.00    +0.000 Cl
ENDBRANCH  22  23
ENDBRANCH  21  22
ENDBRANCH  18  21
ENDBRANCH   2  17
BRANCH   2  30
ATOM     30  C   UNL     1      17.973  42.141  42.267  0.00  0.00    +0.000 C 
ATOM     31  O   UNL     1      17.111  41.386  41.853  0.00  0.00    +0.000 OA
ATOM     32  OXT UNL     1      18.371  43.243  41.589  0.00  0.00    +0.000 OA
ENDBRANCH   2  30
TORSDOF 8
ENDMDL
MODEL 3
REMARK VINA RESULT:      -7.9      2.898      6.675
REMARK  Name = 322234
REMARK  8 active torsions:
REMARK  status: ('A' for Active; 'I' for Inactive)
REMARK    1  A    between atoms: C_3  and  O_5
REMARK    2  A    between atoms: O_5  and  C_8
REMARK    3  A    between atoms: C_14  and  C_15
REMARK    4  A    between atoms: CA_16  and  N_17
REMARK    5  A    between atoms: CA_16  and  C_18
REMARK    6  A    between atoms: C_19  and  C_23
REMARK    7  A    between atoms: C_23  and  C_24
REMARK    8  A    between atoms: C_24  and  C_25
REMARK                            x       y       z     vdW  Elec       q    Type
REMARK                         _______ _______ _______ _____ _____    ______ ____
ROOT
ATOM      1  C   UNL     1      19.773  41.788  43.616  0.00  0.00    +0.000 C 
ATOM      2  CA  UNL     1      18.533  41.272  43.598  0.00  0.00    +0.000 C 
ENDROOT
BRANCH   1   8
ATOM      3  C   UNL     1      22.416  40.935  46.818  0.00  0.00    +0.000 A 
ATOM      4  C   UNL     1      21.942  42.241  46.667  0.00  0.00    +0.000 A 
ATOM      5  C   UNL     1      22.260  40.019  45.774  0.00  0.00    +0.000 A 
ATOM      6  C   UNL     1      21.162  42.575  45.548  0.00  0.00    +0.000 A 
ATOM      7  C   UNL     1      21.448  40.340  44.689  0.00  0.00    +0.000 A 
ATOM      8  C   UNL     1      20.855  41.602  44.589  0.00  0.00    +0.000 A 
BRANCH   3   9
ATOM      9  O   UNL     1      22.985  40.574  48.023  0.00  0.00    +0.000 OA
BRANCH   9  12
ATOM     10 BR   UNL     1      25.677  40.582  46.477  0.00  0.00    +0.000 Br
ATOM     11  C   UNL     1      25.188  41.545  48.036  0.00  0.00    +0.000 A 
ATOM     12  C   UNL     1      23.903  41.455  48.585  0.00  0.00    +0.000 A 
ATOM     13  C   UNL     1      26.161  42.365  48.630  0.00  0.00    +0.000 A 
ATOM     14  C   UNL     1      23.586  42.272  49.683  0.00  0.00    +0.000 A 
ATOM     15  C   UNL     1      25.848  43.112  49.767  0.00  0.00    +0.000 A 
ATOM     16  C   UNL     1      24.558  43.075  50.284  0.00  0.00    +0.000 A 
ENDBRANCH   9  12
ENDBRANCH   3   9
ENDBRANCH   1   8
BRANCH   2  17
ATOM     17  N   UNL     1      18.019  40.418  44.553  0.00  0.00    +0.000 N 
ATOM     18  C   UNL     1      18.079  39.035  44.469  0.00  0.00    +0.000 C 
ATOM     19  O   UNL     1      18.692  38.427  43.605  0.00  0.00    +0.000 OA
ATOM     20  H   UNL     1      17.584  40.814  45.342  0.00  0.00    +0.000 HD
BRANCH  18  21
ATOM     21  C   UNL     1      17.449  38.322  45.648  0.00  0.00    +0.000 C 
BRANCH  21  22
ATOM     22  C   UNL     1      16.419  39.199  46.352  0.00  0.00    +0.000 C 
BRANCH  22  23
ATOM     23  C   UNL     1      16.982  40.540  46.748  0.00  0.00    +0.000 A 
ATOM     24  C   UNL     1      18.176  40.627  47.480  0.00  0.00    +0.000 A 
ATOM     25  C   UNL     1      16.317  41.720  46.387  0.00  0.00    +0.000 A 
ATOM     26  C   UNL     1      18.701  41.873  47.834  0.00  0.00    +0.000 A 
ATOM     27  C   UNL     1      16.843  42.965  46.738  0.00  0.00    +0.000 A 
ATOM     28  C   UNL     1      18.031  43.037  47.462  0.00  0.00    +0.000 A 
ATOM     29 CL   UNL     1      18.677  44.570  47.899  0.00  0.00    +0.000 Cl
ENDBRANCH  22  23
ENDBRANCH  21  22
ENDBRANCH  18  21
ENDBRANCH   2  17
BRANCH   2  30
ATOM     30  C   UNL     1      17.696  41.622  42.398  0.00  0.00    +0.000 C 
ATOM     31  O   UNL     1      16.697  41.025  42.033  0.00  0.00    +0.000 OA
ATOM     32  OXT UNL     1      18.188  42.698  41.740  0.00  0.00    +0.000 OA
ENDBRANCH   2  30
TORSDOF 8
ENDMDL
MODEL 4
REMARK VINA RESULT:      -7.9      1.947      3.984
REMARK  Name = 322234
REMARK  8 active torsions:
REMARK  status: ('A' for Active; 'I' for Inactive)
REMARK    1  A    between atoms: C_3  and  O_5
REMARK    2  A    between atoms: O_5  and  C_8
REMARK    3  A    between atoms: C_14  and  C_15
REMARK    4  A    between atoms: CA_16  and  N_17
REMARK    5  A    between atoms: CA_16  and  C_18
REMARK    6  A    between atoms: C_19  and  C_23
REMARK    7  A    between atoms: C_23  and  C_24
REMARK    8  A    between atoms: C_24  and  C_25
REMARK                            x       y       z     vdW  Elec       q    Type
REMARK                         _______ _______ _______ _____ _____    ______ ____
ROOT
ATOM      1  C   UNL     1      22.907  42.258  48.205  0.00  0.00    +0.000 C 
ATOM      2  CA  UNL     1      24.155  41.792  48.034  0.00  0.00    +0.000 C 
ENDROOT
BRANCH   1   8
ATOM      3  C   UNL     1      19.030  41.615  46.618  0.00  0.00    +0.000 A 
ATOM      4  C   UNL     1      19.768  40.513  47.057  0.00  0.00    +0.000 A 
ATOM      5  C   UNL     1      19.668  42.844  46.433  0.00  0.00    +0.000 A 
ATOM      6  C   UNL     1      21.097  40.685  47.475  0.00  0.00    +0.000 A 
ATOM      7  C   UNL     1      20.972  43.022  46.891  0.00  0.00    +0.000 A 
ATOM      8  C   UNL     1      21.680  41.958  47.459  0.00  0.00    +0.000 A 
BRANCH   3   9
ATOM      9  O   UNL     1      17.671  41.465  46.426  0.00  0.00    +0.000 OA
BRANCH   9  12
ATOM     10 BR   UNL     1      17.200  38.474  45.738  0.00  0.00    +0.000 Br
ATOM     11  C   UNL     1      17.010  40.003  44.631  0.00  0.00    +0.000 A 
ATOM     12  C   UNL     1      17.225  41.298  45.119  0.00  0.00    +0.000 A 
ATOM     13  C   UNL     1      16.637  39.799  43.293  0.00  0.00    +0.000 A 
ATOM     14  C   UNL     1      16.971  42.385  44.267  0.00  0.00    +0.000 A 
ATOM     15  C   UNL     1      16.462  40.890  42.440  0.00  0.00    +0.000 A 
ATOM     16  C   UNL     1      16.616  42.182  42.931  0.00  0.00    +0.000 A 
ENDBRANCH   9  12
ENDBRANCH   3   9
ENDBRANCH   1   8
BRANCH   2  17
ATOM     17  N   UNL     1      24.533  40.886  47.064  0.00  0.00    +0.000 N 
ATOM     18  C   UNL     1      24.301  39.522  47.144  0.00  0.00    +0.000 C 
ATOM     19  O   UNL     1      23.637  38.990  48.021  0.00  0.00    +0.000 OA
ATOM     20  H   UNL     1      24.996  41.229  46.266  0.00  0.00    +0.000 HD
BRANCH  18  21
ATOM     21  C   UNL     1      24.808  38.743  45.947  0.00  0.00    +0.000 C 
BRANCH  21  22
ATOM     22  C   UNL     1      23.664  38.106  45.165  0.00  0.00    +0.000 C 
BRANCH  22  23
ATOM     23  C   UNL     1      22.737  39.133  44.566  0.00  0.00    +0.000 A 
ATOM     24  C   UNL     1      21.416  38.797  44.235  0.00  0.00    +0.000 A 
ATOM     25  C   UNL     1      23.187  40.441  44.334  0.00  0.00    +0.000 A 
ATOM     26  C   UNL     1      20.557  39.756  43.691  0.00  0.00    +0.000 A 
ATOM     27  C   UNL     1      22.327  41.399  43.793  0.00  0.00    +0.000 A 
ATOM     28  C   UNL     1      21.016  41.052  43.472  0.00  0.00    +0.000 A 
ATOM     29 CL   UNL     1      19.958  42.231  42.802  0.00  0.00    +0.000 Cl
ENDBRANCH  22  23
ENDBRANCH  21  22
ENDBRANCH  18  21
ENDBRANCH   2  17
BRANCH   2  30
ATOM     30  C   UNL     1      25.173  42.265  49.036  0.00  0.00    +0.000 C 
ATOM     31  O   UNL     1      24.931  42.921  50.034  0.00  0.00    +0.000 OA
ATOM     32  OXT UNL     1      26.426  41.880  48.697  0.00  0.00    +0.000 OA
ENDBRANCH   2  30
TORSDOF 8
ENDMDL
MODEL 5
REMARK VINA RESULT:      -7.2      3.251      6.991
REMARK  Name = 322234
REMARK  8 active torsions:
REMARK  status: ('A' for Active; 'I' for Inactive)
REMARK    1  A    between atoms: C_3  and  O_5
REMARK    2  A    between atoms: O_5  and  C_8
REMARK    3  A    between atoms: C_14  and  C_15
REMARK    4  A    between atoms: CA_16  and  N_17
REMARK    5  A    between atoms: CA_16  and  C_18
REMARK    6  A    between atoms: C_19  and  C_23
REMARK    7  A    between atoms: C_23  and  C_24
REMARK    8  A    between atoms: C_24  and  C_25
REMARK                            x       y       z     vdW  Elec       q    Type
REMARK                         _______ _______ _______ _____ _____    ______ ____
ROOT
ATOM      1  C   UNL     1      18.634  41.666  42.630  0.00  0.00    +0.000 C 
ATOM      2  CA  UNL     1      17.361  41.289  42.833  0.00  0.00    +0.000 C 
ENDROOT
BRANCH   1   8
ATOM      3  C   UNL     1      21.431  41.593  45.813  0.00  0.00    +0.000 A 
ATOM      4  C   UNL     1      20.964  42.828  45.357  0.00  0.00    +0.000 A 
ATOM      5  C   UNL     1      21.211  40.446  45.046  0.00  0.00    +0.000 A 
ATOM      6  C   UNL     1      20.130  42.885  44.228  0.00  0.00    +0.000 A 
ATOM      7  C   UNL     1      20.348  40.499  43.954  0.00  0.00    +0.000 A 
ATOM      8  C   UNL     1      19.763  41.708  43.565  0.00  0.00    +0.000 A 
BRANCH   3   9
ATOM      9  O   UNL     1      22.059  41.537  47.041  0.00  0.00    +0.000 OA
BRANCH   9  12
ATOM     10 BR   UNL     1      23.419  42.565  49.636  0.00  0.00    +0.000 Br
ATOM     11  C   UNL     1      24.199  41.717  48.130  0.00  0.00    +0.000 A 
ATOM     12  C   UNL     1      23.425  41.274  47.050  0.00  0.00    +0.000 A 
ATOM     13  C   UNL     1      25.592  41.538  48.128  0.00  0.00    +0.000 A 
ATOM     14  C   UNL     1      24.060  40.569  46.015  0.00  0.00    +0.000 A 
ATOM     15  C   UNL     1      26.215  40.900  47.054  0.00  0.00    +0.000 A 
ATOM     16  C   UNL     1      25.447  40.404  46.006  0.00  0.00    +0.000 A 
ENDBRANCH   9  12
ENDBRANCH   3   9
ENDBRANCH   1   8
BRANCH   2  17
ATOM     17  N   UNL     1      16.852  40.844  44.036  0.00  0.00    +0.000 N 
ATOM     18  C   UNL     1      16.901  39.525  44.459  0.00  0.00    +0.000 C 
ATOM     19  O   UNL     1      17.501  38.638  43.870  0.00  0.00    +0.000 OA
ATOM     20  H   UNL     1      16.427  41.503  44.631  0.00  0.00    +0.000 HD
BRANCH  18  21
ATOM     21  C   UNL     1      16.279  39.294  45.821  0.00  0.00    +0.000 C 
BRANCH  21  22
ATOM     22  C   UNL     1      17.275  39.551  46.946  0.00  0.00    +0.000 C 
BRANCH  22  23
ATOM     23  C   UNL     1      17.546  41.020  47.149  0.00  0.00    +0.000 A 
ATOM     24  C   UNL     1      16.660  41.986  46.649  0.00  0.00    +0.000 A 
ATOM     25  C   UNL     1      18.690  41.439  47.844  0.00  0.00    +0.000 A 
ATOM     26  C   UNL     1      16.909  43.347  46.850  0.00  0.00    +0.000 A 
ATOM     27  C   UNL     1      18.936  42.799  48.047  0.00  0.00    +0.000 A 
ATOM     28  C   UNL     1      18.046  43.746  47.547  0.00  0.00    +0.000 A 
ATOM     29 CL   UNL     1      18.352  45.421  47.793  0.00  0.00    +0.000 Cl
ENDBRANCH  22  23
ENDBRANCH  21  22
ENDBRANCH  18  21
ENDBRANCH   2  17
BRANCH   2  30
ATOM     30  C   UNL     1      16.471  41.305  41.619  0.00  0.00    +0.000 C 
ATOM     31  O   UNL     1      15.333  40.872  41.571  0.00  0.00    +0.000 OA
ATOM     32  OXT UNL     1      17.091  41.860  40.551  0.00  0.00    +0.000 OA
ENDBRANCH   2  30
TORSDOF 8
ENDMDL
MODEL 6
REMARK VINA RESULT:      -7.2      3.569      7.161
REMARK  Name = 322234
REMARK  8 active torsions:
REMARK  status: ('A' for Active; 'I' for Inactive)
REMARK    1  A    between atoms: C_3  and  O_5
REMARK    2  A    between atoms: O_5  and  C_8
REMARK    3  A    between atoms: C_14  and  C_15
REMARK    4  A    between atoms: CA_16  and  N_17
REMARK    5  A    between atoms: CA_16  and  C_18
REMARK    6  A    between atoms: C_19  and  C_23
REMARK    7  A    between atoms: C_23  and  C_24
REMARK    8  A    between atoms: C_24  and  C_25
REMARK                            x       y       z     vdW  Elec       q    Type
REMARK                         _______ _______ _______ _____ _____    ______ ____
ROOT
ATOM      1  C   UNL     1      18.679  43.273  46.330  0.00  0.00    +0.000 C 
ATOM      2  CA  UNL     1      17.533  43.026  45.674  0.00  0.00    +0.000 C 
ENDROOT
BRANCH   1   8
ATOM      3  C   UNL     1      22.137  41.057  47.374  0.00  0.00    +0.000 A 
ATOM      4  C   UNL     1      22.296  42.285  46.728  0.00  0.00    +0.000 A 
ATOM      5  C   UNL     1      20.880  40.448  47.400  0.00  0.00    +0.000 A 
ATOM      6  C   UNL     1      21.168  42.982  46.266  0.00  0.00    +0.000 A 
ATOM      7  C   UNL     1      19.758  41.161  46.983  0.00  0.00    +0.000 A 
ATOM      8  C   UNL     1      19.886  42.450  46.457  0.00  0.00    +0.000 A 
BRANCH   3   9
ATOM      9  O   UNL     1      23.228  40.501  48.013  0.00  0.00    +0.000 OA
BRANCH   9  12
ATOM     10 BR   UNL     1      25.901  40.644  46.441  0.00  0.00    +0.000 Br
ATOM     11  C   UNL     1      25.409  41.518  48.050  0.00  0.00    +0.000 A 
ATOM     12  C   UNL     1      24.133  41.373  48.608  0.00  0.00    +0.000 A 
ATOM     13  C   UNL     1      26.371  42.330  48.674  0.00  0.00    +0.000 A 
ATOM     14  C   UNL     1      23.811  42.128  49.748  0.00  0.00    +0.000 A 
ATOM     15  C   UNL     1      26.055  43.013  49.849  0.00  0.00    +0.000 A 
ATOM     16  C   UNL     1      24.772  42.922  50.377  0.00  0.00    +0.000 A 
ENDBRANCH   9  12
ENDBRANCH   3   9
ENDBRANCH   1   8
BRANCH   2  17
ATOM     17  N   UNL     1      17.267  41.879  44.954  0.00  0.00    +0.000 N 
ATOM     18  C   UNL     1      16.752  40.717  45.507  0.00  0.00    +0.000 C 
ATOM     19  O   UNL     1      16.370  40.619  46.664  0.00  0.00    +0.000 OA
ATOM     20  H   UNL     1      17.454  41.886  43.987  0.00  0.00    +0.000 HD
BRANCH  18  21
ATOM     21  C   UNL     1      16.543  39.600  44.505  0.00  0.00    +0.000 C 
BRANCH  21  22
ATOM     22  C   UNL     1      17.258  39.884  43.188  0.00  0.00    +0.000 C 
BRANCH  22  23
ATOM     23  C   UNL     1      18.751  40.006  43.360  0.00  0.00    +0.000 A 
ATOM     24  C   UNL     1      19.420  41.182  42.989  0.00  0.00    +0.000 A 
ATOM     25  C   UNL     1      19.489  38.942  43.898  0.00  0.00    +0.000 A 
ATOM     26  C   UNL     1      20.802  41.295  43.162  0.00  0.00    +0.000 A 
ATOM     27  C   UNL     1      20.870  39.057  44.073  0.00  0.00    +0.000 A 
ATOM     28  C   UNL     1      21.521  40.232  43.703  0.00  0.00    +0.000 A 
ATOM     29 CL   UNL     1      23.223  40.371  43.914  0.00  0.00    +0.000 Cl
ENDBRANCH  22  23
ENDBRANCH  21  22
ENDBRANCH  18  21
ENDBRANCH   2  17
BRANCH   2  30
ATOM     30  C   UNL     1      16.514  44.133  45.695  0.00  0.00    +0.000 C 
ATOM     31  O   UNL     1      16.017  44.656  44.713  0.00  0.00    +0.000 OA
ATOM     32  OXT UNL     1      16.205  44.506  46.960  0.00  0.00    +0.000 OA
ENDBRANCH   2  30
TORSDOF 8
ENDMDL
MODEL 7
REMARK VINA RESULT:      -6.6      1.945      4.329
REMARK  Name = 322234
REMARK  8 active torsions:
REMARK  status: ('A' for Active; 'I' for Inactive)
REMARK    1  A    between atoms: C_3  and  O_5
REMARK    2  A    between atoms: O_5  and  C_8
REMARK    3  A    between atoms: C_14  and  C_15
REMARK    4  A    between atoms: CA_16  and  N_17
REMARK    5  A    between atoms: CA_16  and  C_18
REMARK    6  A    between atoms: C_19  and  C_23
REMARK    7  A    between atoms: C_23  and  C_24
REMARK    8  A    between atoms: C_24  and  C_25
REMARK                            x       y       z     vdW  Elec       q    Type
REMARK                         _______ _______ _______ _____ _____    ______ ____
ROOT
ATOM      1  C   UNL     1      22.576  42.486  48.566  0.00  0.00    +0.000 C 
ATOM      2  CA  UNL     1      23.903  42.295  48.478  0.00  0.00    +0.000 C 
ENDROOT
BRANCH   1   8
ATOM      3  C   UNL     1      19.085  41.901  46.236  0.00  0.00    +0.000 A 
ATOM      4  C   UNL     1      19.728  40.784  46.775  0.00  0.00    +0.000 A 
ATOM      5  C   UNL     1      19.742  43.134  46.217  0.00  0.00    +0.000 A 
ATOM      6  C   UNL     1      20.950  40.940  47.449  0.00  0.00    +0.000 A 
ATOM      7  C   UNL     1      20.931  43.294  46.925  0.00  0.00    +0.000 A 
ATOM      8  C   UNL     1      21.520  42.212  47.586  0.00  0.00    +0.000 A 
BRANCH   3   9
ATOM      9  O   UNL     1      17.790  41.760  45.778  0.00  0.00    +0.000 OA
BRANCH   9  12
ATOM     10 BR   UNL     1      16.947  40.591  43.028  0.00  0.00    +0.000 Br
ATOM     11  C   UNL     1      16.717  39.859  44.763  0.00  0.00    +0.000 A 
ATOM     12  C   UNL     1      17.200  40.507  45.907  0.00  0.00    +0.000 A 
ATOM     13  C   UNL     1      16.045  38.631  44.870  0.00  0.00    +0.000 A 
ATOM     14  C   UNL     1      17.078  39.858  47.146  0.00  0.00    +0.000 A 
ATOM     15  C   UNL     1      15.867  38.037  46.121  0.00  0.00    +0.000 A 
ATOM     16  C   UNL     1      16.395  38.644  47.255  0.00  0.00    +0.000 A 
ENDBRANCH   9  12
ENDBRANCH   3   9
ENDBRANCH   1   8
BRANCH   2  17
ATOM     17  N   UNL     1      24.554  41.770  47.380  0.00  0.00    +0.000 N 
ATOM     18  C   UNL     1      24.736  40.413  47.162  0.00  0.00    +0.000 C 
ATOM     19  O   UNL     1      24.241  39.535  47.853  0.00  0.00    +0.000 OA
ATOM     20  H   UNL     1      24.911  42.397  46.711  0.00  0.00    +0.000 HD
BRANCH  18  21
ATOM     21  C   UNL     1      25.476  40.093  45.879  0.00  0.00    +0.000 C 
BRANCH  21  22
ATOM     22  C   UNL     1      24.867  40.814  44.682  0.00  0.00    +0.000 C 
BRANCH  22  23
ATOM     23  C   UNL     1      23.478  40.323  44.362  0.00  0.00    +0.000 A 
ATOM     24  C   UNL     1      22.501  41.207  43.881  0.00  0.00    +0.000 A 
ATOM     25  C   UNL     1      23.147  38.972  44.541  0.00  0.00    +0.000 A 
ATOM     26  C   UNL     1      21.218  40.745  43.574  0.00  0.00    +0.000 A 
ATOM     27  C   UNL     1      21.866  38.511  44.231  0.00  0.00    +0.000 A 
ATOM     28  C   UNL     1      20.906  39.399  43.751  0.00  0.00    +0.000 A 
ATOM     29 CL   UNL     1      19.327  38.832  43.374  0.00  0.00    +0.000 Cl
ENDBRANCH  22  23
ENDBRANCH  21  22
ENDBRANCH  18  21
ENDBRANCH   2  17
BRANCH   2  30
ATOM     30  C   UNL     1      24.696  42.627  49.714  0.00  0.00    +0.000 C 
ATOM     31  O   UNL     1      25.879  42.920  49.737  0.00  0.00    +0.000 OA
ATOM     32  OXT UNL     1      23.935  42.556  50.831  0.00  0.00    +0.000 OA
ENDBRANCH   2  30
TORSDOF 8
ENDMDL
MODEL 8
REMARK VINA RESULT:      -6.6      1.724      2.594
REMARK  Name = 322234
REMARK  8 active torsions:
REMARK  status: ('A' for Active; 'I' for Inactive)
REMARK    1  A    between atoms: C_3  and  O_5
REMARK    2  A    between atoms: O_5  and  C_8
REMARK    3  A    between atoms: C_14  and  C_15
REMARK    4  A    between atoms: CA_16  and  N_17
REMARK    5  A    between atoms: CA_16  and  C_18
REMARK    6  A    between atoms: C_19  and  C_23
REMARK    7  A    between atoms: C_23  and  C_24
REMARK    8  A    between atoms: C_24  and  C_25
REMARK                            x       y       z     vdW  Elec       q    Type
REMARK                         _______ _______ _______ _____ _____    ______ ____
ROOT
ATOM      1  C   UNL     1      24.388  40.503  45.430  0.00  0.00    +0.000 C 
ATOM      2  CA  UNL     1      24.498  41.320  46.491  0.00  0.00    +0.000 C 
ENDROOT
BRANCH   1   8
ATOM      3  C   UNL     1      20.662  39.783  43.543  0.00  0.00    +0.000 A 
ATOM      4  C   UNL     1      21.486  38.695  43.842  0.00  0.00    +0.000 A 
ATOM      5  C   UNL     1      21.185  41.077  43.592  0.00  0.00    +0.000 A 
ATOM      6  C   UNL     1      22.773  38.914  44.357  0.00  0.00    +0.000 A 
ATOM      7  C   UNL     1      22.444  41.294  44.146  0.00  0.00    +0.000 A 
ATOM      8  C   UNL     1      23.229  40.220  44.577  0.00  0.00    +0.000 A 
BRANCH   3   9
ATOM      9  O   UNL     1      19.334  39.545  43.252  0.00  0.00    +0.000 OA
BRANCH   9  12
ATOM     10 BR   UNL     1      16.627  40.828  42.434  0.00  0.00    +0.000 Br
ATOM     11  C   UNL     1      17.177  40.166  44.123  0.00  0.00    +0.000 A 
ATOM     12  C   UNL     1      18.433  39.574  44.311  0.00  0.00    +0.000 A 
ATOM     13  C   UNL     1      16.277  40.281  45.196  0.00  0.00    +0.000 A 
ATOM     14  C   UNL     1      18.731  39.020  45.566  0.00  0.00    +0.000 A 
ATOM     15  C   UNL     1      16.623  39.791  46.456  0.00  0.00    +0.000 A 
ATOM     16  C   UNL     1      17.843  39.149  46.637  0.00  0.00    +0.000 A 
ENDBRANCH   9  12
ENDBRANCH   3   9
ENDBRANCH   1   8
BRANCH   2  17
ATOM     17  N   UNL     1      23.474  42.092  47.002  0.00  0.00    +0.000 N 
ATOM     18  C   UNL     1      22.401  41.583  47.717  0.00  0.00    +0.000 C 
ATOM     19  O   UNL     1      22.305  40.418  48.072  0.00  0.00    +0.000 OA
ATOM     20  H   UNL     1      23.508  43.064  46.850  0.00  0.00    +0.000 HD
BRANCH  18  21
ATOM     21  C   UNL     1      21.415  42.638  48.176  0.00  0.00    +0.000 C 
BRANCH  21  22
ATOM     22  C   UNL     1      20.010  42.067  48.329  0.00  0.00    +0.000 C 
BRANCH  22  23
ATOM     23  C   UNL     1      19.058  42.600  47.288  0.00  0.00    +0.000 A 
ATOM     24  C   UNL     1      19.451  42.704  45.946  0.00  0.00    +0.000 A 
ATOM     25  C   UNL     1      17.763  42.997  47.653  0.00  0.00    +0.000 A 
ATOM     26  C   UNL     1      18.560  43.187  44.983  0.00  0.00    +0.000 A 
ATOM     27  C   UNL     1      16.873  43.477  46.690  0.00  0.00    +0.000 A 
ATOM     28  C   UNL     1      17.275  43.572  45.360  0.00  0.00    +0.000 A 
ATOM     29 CL   UNL     1      16.180  44.167  44.174  0.00  0.00    +0.000 Cl
ENDBRANCH  22  23
ENDBRANCH  21  22
ENDBRANCH  18  21
ENDBRANCH   2  17
BRANCH   2  30
ATOM     30  C   UNL     1      25.871  41.424  47.098  0.00  0.00    +0.000 C 
ATOM     31  O   UNL     1      26.610  40.486  47.340  0.00  0.00    +0.000 OA
ATOM     32  OXT UNL     1      26.205  42.709  47.363  0.00  0.00    +0.000 OA
ENDBRANCH   2  30
TORSDOF 8
ENDMDL
MODEL 9
REMARK VINA RESULT:      -6.1      2.119      3.953
REMARK  Name = 322234
REMARK  8 active torsions:
REMARK  status: ('A' for Active; 'I' for Inactive)
REMARK    1  A    between atoms: C_3  and  O_5
REMARK    2  A    between atoms: O_5  and  C_8
REMARK    3  A    between atoms: C_14  and  C_15
REMARK    4  A    between atoms: CA_16  and  N_17
REMARK    5  A    between atoms: CA_16  and  C_18
REMARK    6  A    between atoms: C_19  and  C_23
REMARK    7  A    between atoms: C_23  and  C_24
REMARK    8  A    between atoms: C_24  and  C_25
REMARK                            x       y       z     vdW  Elec       q    Type
REMARK                         _______ _______ _______ _____ _____    ______ ____
ROOT
ATOM      1  C   UNL     1      22.935  42.031  47.457  0.00  0.00    +0.000 C 
ATOM      2  CA  UNL     1      23.666  41.198  46.699  0.00  0.00    +0.000 C 
ENDROOT
BRANCH   1   8
ATOM      3  C   UNL     1      19.048  43.307  46.352  0.00  0.00    +0.000 A 
ATOM      4  C   UNL     1      20.135  43.717  45.577  0.00  0.00    +0.000 A 
ATOM      5  C   UNL     1      19.270  42.748  47.613  0.00  0.00    +0.000 A 
ATOM      6  C   UNL     1      21.442  43.408  45.989  0.00  0.00    +0.000 A 
ATOM      7  C   UNL     1      20.564  42.402  47.997  0.00  0.00    +0.000 A 
ATOM      8  C   UNL     1      21.654  42.685  47.169  0.00  0.00    +0.000 A 
BRANCH   3   9
ATOM      9  O   UNL     1      17.778  43.424  45.822  0.00  0.00    +0.000 OA
BRANCH   9  12
ATOM     10 BR   UNL     1      16.064  40.957  46.608  0.00  0.00    +0.000 Br
ATOM     11  C   UNL     1      16.742  41.452  44.908  0.00  0.00    +0.000 A 
ATOM     12  C   UNL     1      17.471  42.634  44.720  0.00  0.00    +0.000 A 
ATOM     13  C   UNL     1      16.485  40.594  43.826  0.00  0.00    +0.000 A 
ATOM     14  C   UNL     1      17.856  42.982  43.415  0.00  0.00    +0.000 A 
ATOM     15  C   UNL     1      16.943  40.921  42.548  0.00  0.00    +0.000 A 
ATOM     16  C   UNL     1      17.615  42.120  42.341  0.00  0.00    +0.000 A 
ENDBRANCH   9  12
ENDBRANCH   3   9
ENDBRANCH   1   8
BRANCH   2  17
ATOM     17  N   UNL     1      23.322  40.777  45.430  0.00  0.00    +0.000 N 
ATOM     18  C   UNL     1      23.146  39.449  45.074  0.00  0.00    +0.000 C 
ATOM     19  O   UNL     1      23.163  38.519  45.866  0.00  0.00    +0.000 OA
ATOM     20  H   UNL     1      23.193  41.462  44.735  0.00  0.00    +0.000 HD
BRANCH  18  21
ATOM     21  C   UNL     1      22.763  39.249  43.622  0.00  0.00    +0.000 C 
BRANCH  21  22
ATOM     22  C   UNL     1      21.462  39.965  43.279  0.00  0.00    +0.000 C 
BRANCH  22  23
ATOM     23  C   UNL     1      20.280  39.392  44.019  0.00  0.00    +0.000 A 
ATOM     24  C   UNL     1      19.512  38.364  43.453  0.00  0.00    +0.000 A 
ATOM     25  C   UNL     1      19.935  39.882  45.287  0.00  0.00    +0.000 A 
ATOM     26  C   UNL     1      18.424  37.828  44.148  0.00  0.00    +0.000 A 
ATOM     27  C   UNL     1      18.850  39.344  45.982  0.00  0.00    +0.000 A 
ATOM     28  C   UNL     1      18.098  38.321  45.409  0.00  0.00    +0.000 A 
ATOM     29 CL   UNL     1      16.759  37.661  46.264  0.00  0.00    +0.000 Cl
ENDBRANCH  22  23
ENDBRANCH  21  22
ENDBRANCH  18  21
ENDBRANCH   2  17
BRANCH   2  30
ATOM     30  C   UNL     1      24.913  40.651  47.342  0.00  0.00    +0.000 C 
ATOM     31  O   UNL     1      26.044  40.768  46.903  0.00  0.00    +0.000 OA
ATOM     32  OXT UNL     1      24.635  39.988  48.489  0.00  0.00    +0.000 OA
ENDBRANCH   2  30
TORSDOF 8
ENDMDL
