MODEL 1
REMARK VINA RESULT:      -6.5      0.000      0.000
REMARK  Name = 319953
REMARK  6 active torsions:
REMARK  status: ('A' for Active; 'I' for Inactive)
REMARK    1  A    between atoms: C_3  and  O_5
REMARK    2  A    between atoms: O_5  and  C_8
REMARK    3  A    between atoms: C_14  and  C_15
REMARK    4  A    between atoms: CA_16  and  N_17
REMARK    5  A    between atoms: CA_16  and  C_18
REMARK    6  A    between atoms: C_19  and  C_23
REMARK                            x       y       z     vdW  Elec       q    Type
REMARK                         _______ _______ _______ _____ _____    ______ ____
ROOT
ATOM      1  C   UNL     1      18.791  43.393  45.237  0.00  0.00    +0.000 C 
ATOM      2  CA  UNL     1      17.877  42.598  44.651  0.00  0.00    +0.000 C 
ENDROOT
BRANCH   1   8
ATOM      3  C   UNL     1      21.997  41.802  47.531  0.00  0.00    +0.000 A 
ATOM      4  C   UNL     1      20.728  41.900  48.105  0.00  0.00    +0.000 A 
ATOM      5  C   UNL     1      22.263  42.464  46.330  0.00  0.00    +0.000 A 
ATOM      6  C   UNL     1      19.690  42.526  47.397  0.00  0.00    +0.000 A 
ATOM      7  C   UNL     1      21.220  43.057  45.610  0.00  0.00    +0.000 A 
ATOM      8  C   UNL     1      19.917  43.050  46.117  0.00  0.00    +0.000 A 
BRANCH   3   9
ATOM      9  O   UNL     1      22.942  41.018  48.167  0.00  0.00    +0.000 OA
BRANCH   9  12
ATOM     10 BR   UNL     1      25.568  40.610  46.555  0.00  0.00    +0.000 Br
ATOM     11  C   UNL     1      25.294  41.537  48.187  0.00  0.00    +0.000 A 
ATOM     12  C   UNL     1      24.020  41.661  48.761  0.00  0.00    +0.000 A 
ATOM     13  C   UNL     1      26.409  42.115  48.808  0.00  0.00    +0.000 A 
ATOM     14  C   UNL     1      23.877  42.456  49.910  0.00  0.00    +0.000 A 
ATOM     15  C   UNL     1      26.259  42.840  49.990  0.00  0.00    +0.000 A 
ATOM     16  C   UNL     1      24.991  43.022  50.532  0.00  0.00    +0.000 A 
ENDBRANCH   9  12
ENDBRANCH   3   9
ENDBRANCH   1   8
BRANCH   2  17
ATOM     17  N   UNL     1      17.892  41.208  44.642  0.00  0.00    +0.000 N 
ATOM     18  C   UNL     1      17.116  40.487  45.533  0.00  0.00    +0.000 C 
ATOM     19  O   UNL     1      16.463  41.006  46.438  0.00  0.00    +0.000 OA
ATOM     20  H   UNL     1      18.460  40.732  43.995  0.00  0.00    +0.000 HD
BRANCH  18  21
ATOM     21  C   UNL     1      17.184  39.004  45.477  0.00  0.00    +0.000 A 
ATOM     22  C   UNL     1      16.447  38.297  46.440  0.00  0.00    +0.000 A 
ATOM     23  C   UNL     1      17.849  38.312  44.460  0.00  0.00    +0.000 A 
ATOM     24  C   UNL     1      16.337  36.909  46.369  0.00  0.00    +0.000 A 
ATOM     25  C   UNL     1      17.730  36.917  44.388  0.00  0.00    +0.000 A 
ATOM     26  C   UNL     1      16.964  36.227  45.331  0.00  0.00    +0.000 A 
ATOM     27 CL   UNL     1      16.754  34.525  45.190  0.00  0.00    +0.000 Cl
ENDBRANCH  18  21
ENDBRANCH   2  17
BRANCH   2  28
ATOM     28  C   UNL     1      16.761  43.308  43.940  0.00  0.00    +0.000 C 
ATOM     29  O   UNL     1      16.290  44.387  44.263  0.00  0.00    +0.000 OA
ATOM     30  OXT UNL     1      16.318  42.596  42.876  0.00  0.00    +0.000 OA
ENDBRANCH   2  28
TORSDOF 6
ENDMDL
MODEL 2
REMARK VINA RESULT:      -4.1      3.258      4.785
REMARK  Name = 319953
REMARK  6 active torsions:
REMARK  status: ('A' for Active; 'I' for Inactive)
REMARK    1  A    between atoms: C_3  and  O_5
REMARK    2  A    between atoms: O_5  and  C_8
REMARK    3  A    between atoms: C_14  and  C_15
REMARK    4  A    between atoms: CA_16  and  N_17
REMARK    5  A    between atoms: CA_16  and  C_18
REMARK    6  A    between atoms: C_19  and  C_23
REMARK                            x       y       z     vdW  Elec       q    Type
REMARK                         _______ _______ _______ _____ _____    ______ ____
ROOT
ATOM      1  C   UNL     1      20.499  38.771  44.245  0.00  0.00    +0.000 C 
ATOM      2  CA  UNL     1      19.274  39.318  44.342  0.00  0.00    +0.000 C 
ENDROOT
BRANCH   1   8
ATOM      3  C   UNL     1      24.095  40.366  45.855  0.00  0.00    +0.000 A 
ATOM      4  C   UNL     1      23.132  41.235  45.340  0.00  0.00    +0.000 A 
ATOM      5  C   UNL     1      23.997  38.996  45.595  0.00  0.00    +0.000 A 
ATOM      6  C   UNL     1      21.993  40.716  44.706  0.00  0.00    +0.000 A 
ATOM      7  C   UNL     1      22.845  38.478  44.994  0.00  0.00    +0.000 A 
ATOM      8  C   UNL     1      21.814  39.331  44.588  0.00  0.00    +0.000 A 
BRANCH   3   9
ATOM      9  O   UNL     1      25.104  40.899  46.637  0.00  0.00    +0.000 OA
BRANCH   9  12
ATOM     10 BR   UNL     1      27.565  41.626  48.391  0.00  0.00    +0.000 Br
ATOM     11  C   UNL     1      25.723  41.936  48.721  0.00  0.00    +0.000 A 
ATOM     12  C   UNL     1      24.736  41.576  47.791  0.00  0.00    +0.000 A 
ATOM     13  C   UNL     1      25.368  42.553  49.927  0.00  0.00    +0.000 A 
ATOM     14  C   UNL     1      23.405  41.938  48.054  0.00  0.00    +0.000 A 
ATOM     15  C   UNL     1      24.031  42.840  50.204  0.00  0.00    +0.000 A 
ATOM     16  C   UNL     1      23.052  42.544  49.261  0.00  0.00    +0.000 A 
ENDBRANCH   9  12
ENDBRANCH   3   9
ENDBRANCH   1   8
BRANCH   2  17
ATOM     17  N   UNL     1      18.968  40.532  44.945  0.00  0.00    +0.000 N 
ATOM     18  C   UNL     1      18.410  40.572  46.212  0.00  0.00    +0.000 C 
ATOM     19  O   UNL     1      18.058  39.567  46.830  0.00  0.00    +0.000 OA
ATOM     20  H   UNL     1      19.148  41.372  44.467  0.00  0.00    +0.000 HD
BRANCH  18  21
ATOM     21  C   UNL     1      18.099  41.900  46.797  0.00  0.00    +0.000 A 
ATOM     22  C   UNL     1      19.076  42.477  47.623  0.00  0.00    +0.000 A 
ATOM     23  C   UNL     1      16.945  42.621  46.473  0.00  0.00    +0.000 A 
ATOM     24  C   UNL     1      18.928  43.782  48.092  0.00  0.00    +0.000 A 
ATOM     25  C   UNL     1      16.803  43.935  46.941  0.00  0.00    +0.000 A 
ATOM     26  C   UNL     1      17.800  44.512  47.732  0.00  0.00    +0.000 A 
ATOM     27 CL   UNL     1      17.659  46.152  48.234  0.00  0.00    +0.000 Cl
ENDBRANCH  18  21
ENDBRANCH   2  17
BRANCH   2  28
ATOM     28  C   UNL     1      18.155  38.512  43.744  0.00  0.00    +0.000 C 
ATOM     29  O   UNL     1      18.072  37.295  43.763  0.00  0.00    +0.000 OA
ATOM     30  OXT UNL     1      17.227  39.309  43.160  0.00  0.00    +0.000 OA
ENDBRANCH   2  28
TORSDOF 6
ENDMDL
