MODEL 1
REMARK VINA RESULT:      -8.2      0.000      0.000
REMARK  Name = 323592
REMARK  7 active torsions:
REMARK  status: ('A' for Active; 'I' for Inactive)
REMARK    1  A    between atoms: C_3  and  O_5
REMARK    2  A    between atoms: O_5  and  C_8
REMARK    3  A    between atoms: C_14  and  C_15
REMARK    4  A    between atoms: CA_16  and  N_17
REMARK    5  A    between atoms: CA_16  and  C_18
REMARK    6  A    between atoms: C_19  and  C_23
REMARK    7  A    between atoms: C_23  and  C_24
REMARK                            x       y       z     vdW  Elec       q    Type
REMARK                         _______ _______ _______ _____ _____    ______ ____
ROOT
ATOM      1  C   UNL     1      20.367  41.974  43.962  0.00  0.00    +0.000 C 
ATOM      2  CA  UNL     1      19.105  42.054  43.515  0.00  0.00    +0.000 C 
ENDROOT
BRANCH   1   8
ATOM      3  C   UNL     1      22.384  40.595  47.407  0.00  0.00    +0.000 A 
ATOM      4  C   UNL     1      22.337  39.771  46.282  0.00  0.00    +0.000 A 
ATOM      5  C   UNL     1      21.541  41.705  47.500  0.00  0.00    +0.000 A 
ATOM      6  C   UNL     1      21.572  40.157  45.173  0.00  0.00    +0.000 A 
ATOM      7  C   UNL     1      20.804  42.103  46.386  0.00  0.00    +0.000 A 
ATOM      8  C   UNL     1      20.860  41.360  45.199  0.00  0.00    +0.000 A 
BRANCH   3   9
ATOM      9  O   UNL     1      23.318  40.301  48.382  0.00  0.00    +0.000 OA
BRANCH   9  12
ATOM     10 BR   UNL     1      25.710  40.597  46.450  0.00  0.00    +0.000 Br
ATOM     11  C   UNL     1      25.327  41.563  48.037  0.00  0.00    +0.000 A 
ATOM     12  C   UNL     1      24.166  41.324  48.781  0.00  0.00    +0.000 A 
ATOM     13  C   UNL     1      26.247  42.534  48.455  0.00  0.00    +0.000 A 
ATOM     14  C   UNL     1      23.898  42.140  49.893  0.00  0.00    +0.000 A 
ATOM     15  C   UNL     1      26.005  43.281  49.608  0.00  0.00    +0.000 A 
ATOM     16  C   UNL     1      24.824  43.092  50.320  0.00  0.00    +0.000 A 
ENDBRANCH   9  12
ENDBRANCH   3   9
ENDBRANCH   1   8
BRANCH   2  17
ATOM     17  N   UNL     1      18.016  41.414  44.087  0.00  0.00    +0.000 N 
ATOM     18  C   UNL     1      17.353  42.011  45.157  0.00  0.00    +0.000 C 
ATOM     19  O   UNL     1      17.656  43.113  45.598  0.00  0.00    +0.000 OA
ATOM     20  H   UNL     1      17.713  40.543  43.740  0.00  0.00    +0.000 HD
BRANCH  18  21
ATOM     21  C   UNL     1      16.313  41.096  45.794  0.00  0.00    +0.000 C 
BRANCH  21  22
ATOM     22  C   UNL     1      16.882  40.125  46.852  0.00  0.00    +0.000 C 
ATOM     23  C   UNL     1      18.247  39.516  46.474  0.00  0.00    +0.000 C 
ATOM     24  C   UNL     1      15.891  38.980  47.142  0.00  0.00    +0.000 C 
ATOM     25  C   UNL     1      18.160  38.532  45.311  0.00  0.00    +0.000 C 
ATOM     26  C   UNL     1      15.788  37.969  45.999  0.00  0.00    +0.000 C 
ATOM     27  C   UNL     1      17.153  37.422  45.589  0.00  0.00    +0.000 C 
ENDBRANCH  21  22
ENDBRANCH  18  21
ENDBRANCH   2  17
BRANCH   2  28
ATOM     28  C   UNL     1      18.881  42.953  42.338  0.00  0.00    +0.000 C 
ATOM     29  O   UNL     1      19.521  43.960  42.099  0.00  0.00    +0.000 OA
ATOM     30  OXT UNL     1      17.834  42.539  41.583  0.00  0.00    +0.000 OA
ENDBRANCH   2  28
TORSDOF 7
ENDMDL
MODEL 2
REMARK VINA RESULT:      -8.2      3.237      6.805
REMARK  Name = 323592
REMARK  7 active torsions:
REMARK  status: ('A' for Active; 'I' for Inactive)
REMARK    1  A    between atoms: C_3  and  O_5
REMARK    2  A    between atoms: O_5  and  C_8
REMARK    3  A    between atoms: C_14  and  C_15
REMARK    4  A    between atoms: CA_16  and  N_17
REMARK    5  A    between atoms: CA_16  and  C_18
REMARK    6  A    between atoms: C_19  and  C_23
REMARK    7  A    between atoms: C_23  and  C_24
REMARK                            x       y       z     vdW  Elec       q    Type
REMARK                         _______ _______ _______ _____ _____    ______ ____
ROOT
ATOM      1  C   UNL     1      25.515  40.716  46.610  0.00  0.00    +0.000 C 
ATOM      2  CA  UNL     1      25.228  41.662  47.516  0.00  0.00    +0.000 C 
ENDROOT
BRANCH   1   8
ATOM      3  C   UNL     1      22.422  39.296  44.108  0.00  0.00    +0.000 A 
ATOM      4  C   UNL     1      22.866  38.485  45.153  0.00  0.00    +0.000 A 
ATOM      5  C   UNL     1      23.173  40.406  43.714  0.00  0.00    +0.000 A 
ATOM      6  C   UNL     1      23.970  38.884  45.918  0.00  0.00    +0.000 A 
ATOM      7  C   UNL     1      24.252  40.818  44.493  0.00  0.00    +0.000 A 
ATOM      8  C   UNL     1      24.621  40.088  45.631  0.00  0.00    +0.000 A 
BRANCH   3   9
ATOM      9  O   UNL     1      21.206  38.990  43.527  0.00  0.00    +0.000 OA
BRANCH   9  12
ATOM     10 BR   UNL     1      18.383  37.983  44.273  0.00  0.00    +0.000 Br
ATOM     11  C   UNL     1      18.926  39.709  43.703  0.00  0.00    +0.000 A 
ATOM     12  C   UNL     1      20.267  40.008  43.440  0.00  0.00    +0.000 A 
ATOM     13  C   UNL     1      17.939  40.692  43.548  0.00  0.00    +0.000 A 
ATOM     14  C   UNL     1      20.612  41.331  43.113  0.00  0.00    +0.000 A 
ATOM     15  C   UNL     1      18.288  41.981  43.144  0.00  0.00    +0.000 A 
ATOM     16  C   UNL     1      19.627  42.303  42.939  0.00  0.00    +0.000 A 
ENDBRANCH   9  12
ENDBRANCH   3   9
ENDBRANCH   1   8
BRANCH   2  17
ATOM     17  N   UNL     1      24.028  42.352  47.593  0.00  0.00    +0.000 N 
ATOM     18  C   UNL     1      22.908  41.724  48.133  0.00  0.00    +0.000 C 
ATOM     19  O   UNL     1      22.938  40.590  48.595  0.00  0.00    +0.000 OA
ATOM     20  H   UNL     1      23.968  43.280  47.268  0.00  0.00    +0.000 HD
BRANCH  18  21
ATOM     21  C   UNL     1      21.632  42.542  47.964  0.00  0.00    +0.000 C 
BRANCH  21  22
ATOM     22  C   UNL     1      20.921  42.340  46.608  0.00  0.00    +0.000 C 
ATOM     23  C   UNL     1      19.934  43.466  46.245  0.00  0.00    +0.000 C 
ATOM     24  C   UNL     1      20.174  40.992  46.570  0.00  0.00    +0.000 C 
ATOM     25  C   UNL     1      18.691  43.480  47.132  0.00  0.00    +0.000 C 
ATOM     26  C   UNL     1      18.917  40.976  47.441  0.00  0.00    +0.000 C 
ATOM     27  C   UNL     1      17.977  42.134  47.118  0.00  0.00    +0.000 C 
ENDBRANCH  21  22
ENDBRANCH  18  21
ENDBRANCH   2  17
BRANCH   2  28
ATOM     28  C   UNL     1      26.287  41.932  48.541  0.00  0.00    +0.000 C 
ATOM     29  O   UNL     1      27.340  41.328  48.629  0.00  0.00    +0.000 OA
ATOM     30  OXT UNL     1      25.912  42.907  49.404  0.00  0.00    +0.000 OA
ENDBRANCH   2  28
TORSDOF 7
ENDMDL
MODEL 3
REMARK VINA RESULT:      -7.8      2.968      6.767
REMARK  Name = 323592
REMARK  7 active torsions:
REMARK  status: ('A' for Active; 'I' for Inactive)
REMARK    1  A    between atoms: C_3  and  O_5
REMARK    2  A    between atoms: O_5  and  C_8
REMARK    3  A    between atoms: C_14  and  C_15
REMARK    4  A    between atoms: CA_16  and  N_17
REMARK    5  A    between atoms: CA_16  and  C_18
REMARK    6  A    between atoms: C_19  and  C_23
REMARK    7  A    between atoms: C_23  and  C_24
REMARK                            x       y       z     vdW  Elec       q    Type
REMARK                         _______ _______ _______ _____ _____    ______ ____
ROOT
ATOM      1  C   UNL     1      23.758  40.391  44.685  0.00  0.00    +0.000 C 
ATOM      2  CA  UNL     1      23.972  41.076  45.818  0.00  0.00    +0.000 C 
ENDROOT
BRANCH   1   8
ATOM      3  C   UNL     1      19.789  39.879  43.334  0.00  0.00    +0.000 A 
ATOM      4  C   UNL     1      20.472  38.775  43.846  0.00  0.00    +0.000 A 
ATOM      5  C   UNL     1      20.488  41.042  42.999  0.00  0.00    +0.000 A 
ATOM      6  C   UNL     1      21.826  38.895  44.187  0.00  0.00    +0.000 A 
ATOM      7  C   UNL     1      21.825  41.170  43.366  0.00  0.00    +0.000 A 
ATOM      8  C   UNL     1      22.485  40.115  44.011  0.00  0.00    +0.000 A 
BRANCH   3   9
ATOM      9  O   UNL     1      18.415  39.792  43.225  0.00  0.00    +0.000 OA
BRANCH   9  12
ATOM     10 BR   UNL     1      16.930  42.415  43.904  0.00  0.00    +0.000 Br
ATOM     11  C   UNL     1      16.991  40.788  44.877  0.00  0.00    +0.000 A 
ATOM     12  C   UNL     1      17.689  39.672  44.401  0.00  0.00    +0.000 A 
ATOM     13  C   UNL     1      16.312  40.728  46.102  0.00  0.00    +0.000 A 
ATOM     14  C   UNL     1      17.613  38.471  45.126  0.00  0.00    +0.000 A 
ATOM     15  C   UNL     1      16.314  39.550  46.849  0.00  0.00    +0.000 A 
ATOM     16  C   UNL     1      16.955  38.417  46.354  0.00  0.00    +0.000 A 
ENDBRANCH   9  12
ENDBRANCH   3   9
ENDBRANCH   1   8
BRANCH   2  17
ATOM     17  N   UNL     1      23.010  41.805  46.501  0.00  0.00    +0.000 N 
ATOM     18  C   UNL     1      22.362  41.232  47.593  0.00  0.00    +0.000 C 
ATOM     19  O   UNL     1      22.634  40.117  48.020  0.00  0.00    +0.000 OA
ATOM     20  H   UNL     1      22.786  42.721  46.216  0.00  0.00    +0.000 HD
BRANCH  18  21
ATOM     21  C   UNL     1      21.203  42.080  48.105  0.00  0.00    +0.000 C 
BRANCH  21  22
ATOM     22  C   UNL     1      19.842  41.761  47.448  0.00  0.00    +0.000 C 
ATOM     23  C   UNL     1      19.694  42.310  46.016  0.00  0.00    +0.000 C 
ATOM     24  C   UNL     1      18.676  42.291  48.306  0.00  0.00    +0.000 C 
ATOM     25  C   UNL     1      19.599  43.832  45.966  0.00  0.00    +0.000 C 
ATOM     26  C   UNL     1      18.546  43.815  48.270  0.00  0.00    +0.000 C 
ATOM     27  C   UNL     1      18.466  44.352  46.844  0.00  0.00    +0.000 C 
ENDBRANCH  21  22
ENDBRANCH  18  21
ENDBRANCH   2  17
BRANCH   2  28
ATOM     28  C   UNL     1      25.353  40.983  46.391  0.00  0.00    +0.000 C 
ATOM     29  O   UNL     1      25.836  41.779  47.175  0.00  0.00    +0.000 OA
ATOM     30  OXT UNL     1      26.034  39.924  45.889  0.00  0.00    +0.000 OA
ENDBRANCH   2  28
TORSDOF 7
ENDMDL
MODEL 4
REMARK VINA RESULT:      -7.0      1.023      1.798
REMARK  Name = 323592
REMARK  7 active torsions:
REMARK  status: ('A' for Active; 'I' for Inactive)
REMARK    1  A    between atoms: C_3  and  O_5
REMARK    2  A    between atoms: O_5  and  C_8
REMARK    3  A    between atoms: C_14  and  C_15
REMARK    4  A    between atoms: CA_16  and  N_17
REMARK    5  A    between atoms: CA_16  and  C_18
REMARK    6  A    between atoms: C_19  and  C_23
REMARK    7  A    between atoms: C_23  and  C_24
REMARK                            x       y       z     vdW  Elec       q    Type
REMARK                         _______ _______ _______ _____ _____    ______ ____
ROOT
ATOM      1  C   UNL     1      20.271  42.246  44.147  0.00  0.00    +0.000 C 
ATOM      2  CA  UNL     1      19.115  42.007  43.511  0.00  0.00    +0.000 C 
ENDROOT
BRANCH   1   8
ATOM      3  C   UNL     1      22.294  40.879  47.594  0.00  0.00    +0.000 A 
ATOM      4  C   UNL     1      21.999  39.965  46.581  0.00  0.00    +0.000 A 
ATOM      5  C   UNL     1      21.678  42.133  47.607  0.00  0.00    +0.000 A 
ATOM      6  C   UNL     1      21.225  40.371  45.486  0.00  0.00    +0.000 A 
ATOM      7  C   UNL     1      20.933  42.545  46.504  0.00  0.00    +0.000 A 
ATOM      8  C   UNL     1      20.749  41.684  45.414  0.00  0.00    +0.000 A 
BRANCH   3   9
ATOM      9  O   UNL     1      23.239  40.516  48.534  0.00  0.00    +0.000 OA
BRANCH   9  12
ATOM     10 BR   UNL     1      25.573  40.625  46.513  0.00  0.00    +0.000 Br
ATOM     11  C   UNL     1      25.324  41.621  48.108  0.00  0.00    +0.000 A 
ATOM     12  C   UNL     1      24.177  41.473  48.896  0.00  0.00    +0.000 A 
ATOM     13  C   UNL     1      26.330  42.520  48.487  0.00  0.00    +0.000 A 
ATOM     14  C   UNL     1      24.013  42.309  50.013  0.00  0.00    +0.000 A 
ATOM     15  C   UNL     1      26.188  43.286  49.644  0.00  0.00    +0.000 A 
ATOM     16  C   UNL     1      25.024  43.189  50.400  0.00  0.00    +0.000 A 
ENDBRANCH   9  12
ENDBRANCH   3   9
ENDBRANCH   1   8
BRANCH   2  17
ATOM     17  N   UNL     1      18.195  41.033  43.870  0.00  0.00    +0.000 N 
ATOM     18  C   UNL     1      18.447  39.700  43.552  0.00  0.00    +0.000 C 
ATOM     19  O   UNL     1      19.478  39.329  43.005  0.00  0.00    +0.000 OA
ATOM     20  H   UNL     1      17.369  41.282  44.345  0.00  0.00    +0.000 HD
BRANCH  18  21
ATOM     21  C   UNL     1      17.258  38.789  43.835  0.00  0.00    +0.000 C 
BRANCH  21  22
ATOM     22  C   UNL     1      17.398  37.939  45.116  0.00  0.00    +0.000 C 
ATOM     23  C   UNL     1      16.055  37.460  45.700  0.00  0.00    +0.000 C 
ATOM     24  C   UNL     1      18.169  38.707  46.208  0.00  0.00    +0.000 C 
ATOM     25  C   UNL     1      15.222  38.595  46.292  0.00  0.00    +0.000 C 
ATOM     26  C   UNL     1      17.359  39.845  46.830  0.00  0.00    +0.000 C 
ATOM     27  C   UNL     1      16.003  39.372  47.346  0.00  0.00    +0.000 C 
ENDBRANCH  21  22
ENDBRANCH  18  21
ENDBRANCH   2  17
BRANCH   2  28
ATOM     28  C   UNL     1      18.800  42.912  42.359  0.00  0.00    +0.000 C 
ATOM     29  O   UNL     1      19.383  43.951  42.110  0.00  0.00    +0.000 OA
ATOM     30  OXT UNL     1      17.741  42.462  41.644  0.00  0.00    +0.000 OA
ENDBRANCH   2  28
TORSDOF 7
ENDMDL
MODEL 5
REMARK VINA RESULT:      -7.0      1.201      1.593
REMARK  Name = 323592
REMARK  7 active torsions:
REMARK  status: ('A' for Active; 'I' for Inactive)
REMARK    1  A    between atoms: C_3  and  O_5
REMARK    2  A    between atoms: O_5  and  C_8
REMARK    3  A    between atoms: C_14  and  C_15
REMARK    4  A    between atoms: CA_16  and  N_17
REMARK    5  A    between atoms: CA_16  and  C_18
REMARK    6  A    between atoms: C_19  and  C_23
REMARK    7  A    between atoms: C_23  and  C_24
REMARK                            x       y       z     vdW  Elec       q    Type
REMARK                         _______ _______ _______ _____ _____    ______ ____
ROOT
ATOM      1  C   UNL     1      21.012  41.366  43.593  0.00  0.00    +0.000 C 
ATOM      2  CA  UNL     1      19.676  41.462  43.661  0.00  0.00    +0.000 C 
ENDROOT
BRANCH   1   8
ATOM      3  C   UNL     1      23.769  40.328  46.620  0.00  0.00    +0.000 A 
ATOM      4  C   UNL     1      24.214  40.394  45.299  0.00  0.00    +0.000 A 
ATOM      5  C   UNL     1      22.400  40.308  46.898  0.00  0.00    +0.000 A 
ATOM      6  C   UNL     1      23.293  40.617  44.268  0.00  0.00    +0.000 A 
ATOM      7  C   UNL     1      21.488  40.561  45.875  0.00  0.00    +0.000 A 
ATOM      8  C   UNL     1      21.936  40.770  44.564  0.00  0.00    +0.000 A 
BRANCH   3   9
ATOM      9  O   UNL     1      24.720  40.335  47.622  0.00  0.00    +0.000 OA
BRANCH   9  12
ATOM     10 BR   UNL     1      27.541  41.381  48.322  0.00  0.00    +0.000 Br
ATOM     11  C   UNL     1      25.859  41.925  49.008  0.00  0.00    +0.000 A 
ATOM     12  C   UNL     1      24.662  41.367  48.548  0.00  0.00    +0.000 A 
ATOM     13  C   UNL     1      25.843  42.913  50.003  0.00  0.00    +0.000 A 
ATOM     14  C   UNL     1      23.447  41.883  49.032  0.00  0.00    +0.000 A 
ATOM     15  C   UNL     1      24.631  43.358  50.530  0.00  0.00    +0.000 A 
ATOM     16  C   UNL     1      23.432  42.852  50.035  0.00  0.00    +0.000 A 
ENDBRANCH   9  12
ENDBRANCH   3   9
ENDBRANCH   1   8
BRANCH   2  17
ATOM     17  N   UNL     1      18.883  40.858  44.625  0.00  0.00    +0.000 N 
ATOM     18  C   UNL     1      18.446  41.602  45.719  0.00  0.00    +0.000 C 
ATOM     19  O   UNL     1      18.690  42.795  45.854  0.00  0.00    +0.000 OA
ATOM     20  H   UNL     1      18.631  39.910  44.537  0.00  0.00    +0.000 HD
BRANCH  18  21
ATOM     21  C   UNL     1      17.757  40.749  46.778  0.00  0.00    +0.000 C 
BRANCH  21  22
ATOM     22  C   UNL     1      16.350  40.251  46.378  0.00  0.00    +0.000 C 
ATOM     23  C   UNL     1      15.836  39.075  47.231  0.00  0.00    +0.000 C 
ATOM     24  C   UNL     1      16.309  39.843  44.892  0.00  0.00    +0.000 C 
ATOM     25  C   UNL     1      16.597  37.776  46.978  0.00  0.00    +0.000 C 
ATOM     26  C   UNL     1      17.055  38.538  44.606  0.00  0.00    +0.000 C 
ATOM     27  C   UNL     1      16.583  37.396  45.502  0.00  0.00    +0.000 C 
ENDBRANCH  21  22
ENDBRANCH  18  21
ENDBRANCH   2  17
BRANCH   2  28
ATOM     28  C   UNL     1      19.027  42.338  42.633  0.00  0.00    +0.000 C 
ATOM     29  O   UNL     1      19.459  43.414  42.264  0.00  0.00    +0.000 OA
ATOM     30  OXT UNL     1      17.860  41.812  42.192  0.00  0.00    +0.000 OA
ENDBRANCH   2  28
TORSDOF 7
ENDMDL
MODEL 6
REMARK VINA RESULT:      -6.4      2.275      3.603
REMARK  Name = 323592
REMARK  7 active torsions:
REMARK  status: ('A' for Active; 'I' for Inactive)
REMARK    1  A    between atoms: C_3  and  O_5
REMARK    2  A    between atoms: O_5  and  C_8
REMARK    3  A    between atoms: C_14  and  C_15
REMARK    4  A    between atoms: CA_16  and  N_17
REMARK    5  A    between atoms: CA_16  and  C_18
REMARK    6  A    between atoms: C_19  and  C_23
REMARK    7  A    between atoms: C_23  and  C_24
REMARK                            x       y       z     vdW  Elec       q    Type
REMARK                         _______ _______ _______ _____ _____    ______ ____
ROOT
ATOM      1  C   UNL     1      21.276  39.222  43.829  0.00  0.00    +0.000 C 
ATOM      2  CA  UNL     1      20.147  39.743  44.330  0.00  0.00    +0.000 C 
ENDROOT
BRANCH   1   8
ATOM      3  C   UNL     1      24.949  39.901  45.802  0.00  0.00    +0.000 A 
ATOM      4  C   UNL     1      24.399  40.927  45.033  0.00  0.00    +0.000 A 
ATOM      5  C   UNL     1      24.461  38.597  45.682  0.00  0.00    +0.000 A 
ATOM      6  C   UNL     1      23.246  40.684  44.275  0.00  0.00    +0.000 A 
ATOM      7  C   UNL     1      23.298  38.363  44.951  0.00  0.00    +0.000 A 
ATOM      8  C   UNL     1      22.655  39.418  44.289  0.00  0.00    +0.000 A 
BRANCH   3   9
ATOM      9  O   UNL     1      25.940  40.232  46.706  0.00  0.00    +0.000 OA
BRANCH   9  12
ATOM     10 BR   UNL     1      23.435  39.367  48.294  0.00  0.00    +0.000 Br
ATOM     11  C   UNL     1      24.483  40.938  48.474  0.00  0.00    +0.000 A 
ATOM     12  C   UNL     1      25.621  41.157  47.690  0.00  0.00    +0.000 A 
ATOM     13  C   UNL     1      24.085  41.890  49.423  0.00  0.00    +0.000 A 
ATOM     14  C   UNL     1      26.404  42.297  47.940  0.00  0.00    +0.000 A 
ATOM     15  C   UNL     1      24.829  43.056  49.604  0.00  0.00    +0.000 A 
ATOM     16  C   UNL     1      25.996  43.253  48.871  0.00  0.00    +0.000 A 
ENDBRANCH   9  12
ENDBRANCH   3   9
ENDBRANCH   1   8
BRANCH   2  17
ATOM     17  N   UNL     1      20.058  40.464  45.510  0.00  0.00    +0.000 N 
ATOM     18  C   UNL     1      20.183  41.852  45.478  0.00  0.00    +0.000 C 
ATOM     19  O   UNL     1      20.322  42.484  44.438  0.00  0.00    +0.000 OA
ATOM     20  H   UNL     1      19.909  40.000  46.366  0.00  0.00    +0.000 HD
BRANCH  18  21
ATOM     21  C   UNL     1      20.261  42.472  46.868  0.00  0.00    +0.000 C 
BRANCH  21  22
ATOM     22  C   UNL     1      19.090  42.093  47.801  0.00  0.00    +0.000 C 
ATOM     23  C   UNL     1      17.870  41.503  47.067  0.00  0.00    +0.000 C 
ATOM     24  C   UNL     1      18.629  43.307  48.632  0.00  0.00    +0.000 C 
ATOM     25  C   UNL     1      17.133  42.529  46.211  0.00  0.00    +0.000 C 
ATOM     26  C   UNL     1      17.877  44.352  47.806  0.00  0.00    +0.000 C 
ATOM     27  C   UNL     1      16.711  43.743  47.031  0.00  0.00    +0.000 C 
ENDBRANCH  21  22
ENDBRANCH  18  21
ENDBRANCH   2  17
BRANCH   2  28
ATOM     28  C   UNL     1      18.913  39.556  43.500  0.00  0.00    +0.000 C 
ATOM     29  O   UNL     1      18.405  40.416  42.805  0.00  0.00    +0.000 OA
ATOM     30  OXT UNL     1      18.389  38.316  43.653  0.00  0.00    +0.000 OA
ENDBRANCH   2  28
TORSDOF 7
ENDMDL
MODEL 7
REMARK VINA RESULT:      -6.0      2.992      6.684
REMARK  Name = 323592
REMARK  7 active torsions:
REMARK  status: ('A' for Active; 'I' for Inactive)
REMARK    1  A    between atoms: C_3  and  O_5
REMARK    2  A    between atoms: O_5  and  C_8
REMARK    3  A    between atoms: C_14  and  C_15
REMARK    4  A    between atoms: CA_16  and  N_17
REMARK    5  A    between atoms: CA_16  and  C_18
REMARK    6  A    between atoms: C_19  and  C_23
REMARK    7  A    between atoms: C_23  and  C_24
REMARK                            x       y       z     vdW  Elec       q    Type
REMARK                         _______ _______ _______ _____ _____    ______ ____
ROOT
ATOM      1  C   UNL     1      23.073  41.876  47.265  0.00  0.00    +0.000 C 
ATOM      2  CA  UNL     1      23.481  40.716  46.730  0.00  0.00    +0.000 C 
ENDROOT
BRANCH   1   8
ATOM      3  C   UNL     1      19.191  43.282  46.374  0.00  0.00    +0.000 A 
ATOM      4  C   UNL     1      20.247  43.651  45.540  0.00  0.00    +0.000 A 
ATOM      5  C   UNL     1      19.450  42.720  47.627  0.00  0.00    +0.000 A 
ATOM      6  C   UNL     1      21.558  43.296  45.884  0.00  0.00    +0.000 A 
ATOM      7  C   UNL     1      20.750  42.341  47.954  0.00  0.00    +0.000 A 
ATOM      8  C   UNL     1      21.802  42.579  47.059  0.00  0.00    +0.000 A 
BRANCH   3   9
ATOM      9  O   UNL     1      17.905  43.446  45.896  0.00  0.00    +0.000 OA
BRANCH   9  12
ATOM     10 BR   UNL     1      16.190  40.993  46.659  0.00  0.00    +0.000 Br
ATOM     11  C   UNL     1      16.800  41.541  44.949  0.00  0.00    +0.000 A 
ATOM     12  C   UNL     1      17.544  42.713  44.775  0.00  0.00    +0.000 A 
ATOM     13  C   UNL     1      16.486  40.733  43.847  0.00  0.00    +0.000 A 
ATOM     14  C   UNL     1      17.883  43.109  43.470  0.00  0.00    +0.000 A 
ATOM     15  C   UNL     1      16.899  41.100  42.567  0.00  0.00    +0.000 A 
ATOM     16  C   UNL     1      17.587  42.295  42.377  0.00  0.00    +0.000 A 
ENDBRANCH   9  12
ENDBRANCH   3   9
ENDBRANCH   1   8
BRANCH   2  17
ATOM     17  N   UNL     1      22.689  39.864  45.977  0.00  0.00    +0.000 N 
ATOM     18  C   UNL     1      22.746  39.922  44.586  0.00  0.00    +0.000 C 
ATOM     19  O   UNL     1      23.508  40.666  43.981  0.00  0.00    +0.000 OA
ATOM     20  H   UNL     1      22.088  39.222  46.422  0.00  0.00    +0.000 HD
BRANCH  18  21
ATOM     21  C   UNL     1      21.677  39.067  43.913  0.00  0.00    +0.000 C 
BRANCH  21  22
ATOM     22  C   UNL     1      20.326  39.786  43.704  0.00  0.00    +0.000 C 
ATOM     23  C   UNL     1      19.748  40.417  44.986  0.00  0.00    +0.000 C 
ATOM     24  C   UNL     1      19.278  38.828  43.105  0.00  0.00    +0.000 C 
ATOM     25  C   UNL     1      19.278  39.380  46.003  0.00  0.00    +0.000 C 
ATOM     26  C   UNL     1      18.778  37.781  44.102  0.00  0.00    +0.000 C 
ATOM     27  C   UNL     1      18.268  38.414  45.395  0.00  0.00    +0.000 C 
ENDBRANCH  21  22
ENDBRANCH  18  21
ENDBRANCH   2  17
BRANCH   2  28
ATOM     28  C   UNL     1      24.925  40.370  46.936  0.00  0.00    +0.000 C 
ATOM     29  O   UNL     1      25.570  39.623  46.226  0.00  0.00    +0.000 OA
ATOM     30  OXT UNL     1      25.425  40.954  48.052  0.00  0.00    +0.000 OA
ENDBRANCH   2  28
TORSDOF 7
ENDMDL
MODEL 8
REMARK VINA RESULT:      -5.7      2.912      7.224
REMARK  Name = 323592
REMARK  7 active torsions:
REMARK  status: ('A' for Active; 'I' for Inactive)
REMARK    1  A    between atoms: C_3  and  O_5
REMARK    2  A    between atoms: O_5  and  C_8
REMARK    3  A    between atoms: C_14  and  C_15
REMARK    4  A    between atoms: CA_16  and  N_17
REMARK    5  A    between atoms: CA_16  and  C_18
REMARK    6  A    between atoms: C_19  and  C_23
REMARK    7  A    between atoms: C_23  and  C_24
REMARK                            x       y       z     vdW  Elec       q    Type
REMARK                         _______ _______ _______ _____ _____    ______ ____
ROOT
ATOM      1  C   UNL     1      22.000  42.397  48.314  0.00  0.00    +0.000 C 
ATOM      2  CA  UNL     1      23.078  41.996  47.625  0.00  0.00    +0.000 C 
ENDROOT
BRANCH   1   8
ATOM      3  C   UNL     1      18.116  42.944  46.744  0.00  0.00    +0.000 A 
ATOM      4  C   UNL     1      19.214  43.148  45.907  0.00  0.00    +0.000 A 
ATOM      5  C   UNL     1      18.296  42.859  48.127  0.00  0.00    +0.000 A 
ATOM      6  C   UNL     1      20.510  43.089  46.437  0.00  0.00    +0.000 A 
ATOM      7  C   UNL     1      19.585  42.771  48.649  0.00  0.00    +0.000 A 
ATOM      8  C   UNL     1      20.697  42.831  47.799  0.00  0.00    +0.000 A 
BRANCH   3   9
ATOM      9  O   UNL     1      16.878  42.783  46.154  0.00  0.00    +0.000 OA
BRANCH   9  12
ATOM     10 BR   UNL     1      16.409  39.837  46.957  0.00  0.00    +0.000 Br
ATOM     11  C   UNL     1      16.640  40.584  45.229  0.00  0.00    +0.000 A 
ATOM     12  C   UNL     1      16.806  41.960  45.039  0.00  0.00    +0.000 A 
ATOM     13  C   UNL     1      16.643  39.713  44.130  0.00  0.00    +0.000 A 
ATOM     14  C   UNL     1      16.877  42.456  43.726  0.00  0.00    +0.000 A 
ATOM     15  C   UNL     1      16.796  40.214  42.838  0.00  0.00    +0.000 A 
ATOM     16  C   UNL     1      16.900  41.587  42.635  0.00  0.00    +0.000 A 
ENDBRANCH   9  12
ENDBRANCH   3   9
ENDBRANCH   1   8
BRANCH   2  17
ATOM     17  N   UNL     1      23.110  41.766  46.258  0.00  0.00    +0.000 N 
ATOM     18  C   UNL     1      23.566  40.540  45.779  0.00  0.00    +0.000 C 
ATOM     19  O   UNL     1      23.902  39.620  46.515  0.00  0.00    +0.000 OA
ATOM     20  H   UNL     1      22.814  42.465  45.630  0.00  0.00    +0.000 HD
BRANCH  18  21
ATOM     21  C   UNL     1      23.726  40.519  44.263  0.00  0.00    +0.000 C 
BRANCH  21  22
ATOM     22  C   UNL     1      22.730  39.592  43.531  0.00  0.00    +0.000 C 
ATOM     23  C   UNL     1      21.774  40.331  42.575  0.00  0.00    +0.000 C 
ATOM     24  C   UNL     1      21.894  38.774  44.536  0.00  0.00    +0.000 C 
ATOM     25  C   UNL     1      20.753  41.200  43.304  0.00  0.00    +0.000 C 
ATOM     26  C   UNL     1      20.853  39.614  45.277  0.00  0.00    +0.000 C 
ATOM     27  C   UNL     1      19.954  40.393  44.321  0.00  0.00    +0.000 C 
ENDBRANCH  21  22
ENDBRANCH  18  21
ENDBRANCH   2  17
BRANCH   2  28
ATOM     28  C   UNL     1      24.343  41.846  48.415  0.00  0.00    +0.000 C 
ATOM     29  O   UNL     1      25.451  42.160  48.022  0.00  0.00    +0.000 OA
ATOM     30  OXT UNL     1      24.116  41.262  49.617  0.00  0.00    +0.000 OA
ENDBRANCH   2  28
TORSDOF 7
ENDMDL
MODEL 9
REMARK VINA RESULT:      -5.7      2.564      7.455
REMARK  Name = 323592
REMARK  7 active torsions:
REMARK  status: ('A' for Active; 'I' for Inactive)
REMARK    1  A    between atoms: C_3  and  O_5
REMARK    2  A    between atoms: O_5  and  C_8
REMARK    3  A    between atoms: C_14  and  C_15
REMARK    4  A    between atoms: CA_16  and  N_17
REMARK    5  A    between atoms: CA_16  and  C_18
REMARK    6  A    between atoms: C_19  and  C_23
REMARK    7  A    between atoms: C_23  and  C_24
REMARK                            x       y       z     vdW  Elec       q    Type
REMARK                         _______ _______ _______ _____ _____    ______ ____
ROOT
ATOM      1  C   UNL     1      21.771  42.795  48.245  0.00  0.00    +0.000 C 
ATOM      2  CA  UNL     1      22.735  41.866  48.316  0.00  0.00    +0.000 C 
ENDROOT
BRANCH   1   8
ATOM      3  C   UNL     1      18.302  42.029  45.960  0.00  0.00    +0.000 A 
ATOM      4  C   UNL     1      19.473  42.403  45.299  0.00  0.00    +0.000 A 
ATOM      5  C   UNL     1      18.194  42.195  47.343  0.00  0.00    +0.000 A 
ATOM      6  C   UNL     1      20.599  42.777  46.044  0.00  0.00    +0.000 A 
ATOM      7  C   UNL     1      19.323  42.539  48.084  0.00  0.00    +0.000 A 
ATOM      8  C   UNL     1      20.545  42.778  47.441  0.00  0.00    +0.000 A 
BRANCH   3   9
ATOM      9  O   UNL     1      17.295  41.452  45.210  0.00  0.00    +0.000 OA
BRANCH   9  12
ATOM     10 BR   UNL     1      19.015  39.694  43.341  0.00  0.00    +0.000 Br
ATOM     11  C   UNL     1      17.710  39.167  44.613  0.00  0.00    +0.000 A 
ATOM     12  C   UNL     1      17.044  40.103  45.413  0.00  0.00    +0.000 A 
ATOM     13  C   UNL     1      17.423  37.801  44.734  0.00  0.00    +0.000 A 
ATOM     14  C   UNL     1      16.158  39.636  46.399  0.00  0.00    +0.000 A 
ATOM     15  C   UNL     1      16.481  37.361  45.664  0.00  0.00    +0.000 A 
ATOM     16  C   UNL     1      15.858  38.278  46.505  0.00  0.00    +0.000 A 
ENDBRANCH   9  12
ENDBRANCH   3   9
ENDBRANCH   1   8
BRANCH   2  17
ATOM     17  N   UNL     1      22.672  40.607  47.739  0.00  0.00    +0.000 N 
ATOM     18  C   UNL     1      23.557  39.615  48.157  0.00  0.00    +0.000 C 
ATOM     19  O   UNL     1      24.371  39.784  49.056  0.00  0.00    +0.000 OA
ATOM     20  H   UNL     1      22.008  40.415  47.037  0.00  0.00    +0.000 HD
BRANCH  18  21
ATOM     21  C   UNL     1      23.492  38.361  47.292  0.00  0.00    +0.000 C 
BRANCH  21  22
ATOM     22  C   UNL     1      24.389  38.406  46.036  0.00  0.00    +0.000 C 
ATOM     23  C   UNL     1      25.098  39.757  45.821  0.00  0.00    +0.000 C 
ATOM     24  C   UNL     1      23.583  38.060  44.768  0.00  0.00    +0.000 C 
ATOM     25  C   UNL     1      24.140  40.880  45.434  0.00  0.00    +0.000 C 
ATOM     26  C   UNL     1      22.619  39.170  44.346  0.00  0.00    +0.000 C 
ATOM     27  C   UNL     1      23.321  40.518  44.200  0.00  0.00    +0.000 C 
ENDBRANCH  21  22
ENDBRANCH  18  21
ENDBRANCH   2  17
BRANCH   2  28
ATOM     28  C   UNL     1      23.985  42.270  49.038  0.00  0.00    +0.000 C 
ATOM     29  O   UNL     1      25.078  42.396  48.520  0.00  0.00    +0.000 OA
ATOM     30  OXT UNL     1      23.765  42.433  50.365  0.00  0.00    +0.000 OA
ENDBRANCH   2  28
TORSDOF 7
ENDMDL
