MODEL 1
REMARK VINA RESULT:      -8.4      0.000      0.000
REMARK  Name = 319869
REMARK  7 active torsions:
REMARK  status: ('A' for Active; 'I' for Inactive)
REMARK    1  A    between atoms: C_3  and  O_5
REMARK    2  A    between atoms: O_5  and  C_8
REMARK    3  A    between atoms: C_14  and  C_15
REMARK    4  A    between atoms: CA_16  and  N_17
REMARK    5  A    between atoms: CA_16  and  C_18
REMARK    6  A    between atoms: C_19  and  C_23
REMARK    7  A    between atoms: C_24  and  O_26
REMARK                            x       y       z     vdW  Elec       q    Type
REMARK                         _______ _______ _______ _____ _____    ______ ____
ROOT
ATOM      1  C   UNL     1      20.301  42.443  43.480  0.00  0.00    +0.000 C 
ATOM      2  CA  UNL     1      19.003  42.124  43.377  0.00  0.00    +0.000 C 
ENDROOT
BRANCH   1   8
ATOM      3  C   UNL     1      22.497  41.250  46.893  0.00  0.00    +0.000 A 
ATOM      4  C   UNL     1      21.979  42.543  46.826  0.00  0.00    +0.000 A 
ATOM      5  C   UNL     1      22.532  40.455  45.745  0.00  0.00    +0.000 A 
ATOM      6  C   UNL     1      21.356  42.987  45.655  0.00  0.00    +0.000 A 
ATOM      7  C   UNL     1      21.892  40.888  44.581  0.00  0.00    +0.000 A 
ATOM      8  C   UNL     1      21.256  42.137  44.551  0.00  0.00    +0.000 A 
BRANCH   3   9
ATOM      9  O   UNL     1      22.943  40.806  48.121  0.00  0.00    +0.000 OA
BRANCH   9  12
ATOM     10 BR   UNL     1      25.722  40.630  46.792  0.00  0.00    +0.000 Br
ATOM     11  C   UNL     1      25.198  41.585  48.345  0.00  0.00    +0.000 A 
ATOM     12  C   UNL     1      23.872  41.578  48.800  0.00  0.00    +0.000 A 
ATOM     13  C   UNL     1      26.178  42.311  49.032  0.00  0.00    +0.000 A 
ATOM     14  C   UNL     1      23.532  42.384  49.899  0.00  0.00    +0.000 A 
ATOM     15  C   UNL     1      25.840  43.050  50.166  0.00  0.00    +0.000 A 
ATOM     16  C   UNL     1      24.514  43.097  50.591  0.00  0.00    +0.000 A 
ENDBRANCH   9  12
ENDBRANCH   3   9
ENDBRANCH   1   8
BRANCH   2  17
ATOM     17  N   UNL     1      18.343  41.289  44.265  0.00  0.00    +0.000 N 
ATOM     18  C   UNL     1      18.407  39.922  44.074  0.00  0.00    +0.000 C 
ATOM     19  O   UNL     1      19.119  39.382  43.228  0.00  0.00    +0.000 OA
ATOM     20  H   UNL     1      17.835  41.664  45.021  0.00  0.00    +0.000 HD
BRANCH  18  21
ATOM     21  C   UNL     1      17.563  39.061  44.937  0.00  0.00    +0.000 A 
ATOM     22  C   UNL     1      17.749  37.673  44.906  0.00  0.00    +0.000 A 
ATOM     23  C   UNL     1      16.680  39.624  45.861  0.00  0.00    +0.000 A 
ATOM     24  C   UNL     1      17.046  36.849  45.782  0.00  0.00    +0.000 A 
ATOM     25  C   UNL     1      15.998  38.797  46.762  0.00  0.00    +0.000 A 
ATOM     26  C   UNL     1      16.184  37.414  46.722  0.00  0.00    +0.000 A 
BRANCH  22  27
ATOM     27  O   UNL     1      18.620  37.056  44.048  0.00  0.00    +0.000 OA
ATOM     28  H   UNL     1      18.433  37.028  43.130  0.00  0.00    +0.000 HD
ENDBRANCH  22  27
ENDBRANCH  18  21
ENDBRANCH   2  17
BRANCH   2  29
ATOM     29  C   UNL     1      18.272  42.745  42.207  0.00  0.00    +0.000 C 
ATOM     30  O   UNL     1      18.559  43.828  41.718  0.00  0.00    +0.000 OA
ATOM     31  OXT UNL     1      17.308  41.961  41.695  0.00  0.00    +0.000 OA
ENDBRANCH   2  29
TORSDOF 7
ENDMDL
MODEL 2
REMARK VINA RESULT:      -7.8      2.856      7.092
REMARK  Name = 319869
REMARK  7 active torsions:
REMARK  status: ('A' for Active; 'I' for Inactive)
REMARK    1  A    between atoms: C_3  and  O_5
REMARK    2  A    between atoms: O_5  and  C_8
REMARK    3  A    between atoms: C_14  and  C_15
REMARK    4  A    between atoms: CA_16  and  N_17
REMARK    5  A    between atoms: CA_16  and  C_18
REMARK    6  A    between atoms: C_19  and  C_23
REMARK    7  A    between atoms: C_24  and  O_26
REMARK                            x       y       z     vdW  Elec       q    Type
REMARK                         _______ _______ _______ _____ _____    ______ ____
ROOT
ATOM      1  C   UNL     1      23.660  40.391  45.015  0.00  0.00    +0.000 C 
ATOM      2  CA  UNL     1      23.785  41.273  46.016  0.00  0.00    +0.000 C 
ENDROOT
BRANCH   1   8
ATOM      3  C   UNL     1      19.856  39.496  43.395  0.00  0.00    +0.000 A 
ATOM      4  C   UNL     1      20.597  38.485  44.007  0.00  0.00    +0.000 A 
ATOM      5  C   UNL     1      20.469  40.710  43.074  0.00  0.00    +0.000 A 
ATOM      6  C   UNL     1      21.904  38.740  44.439  0.00  0.00    +0.000 A 
ATOM      7  C   UNL     1      21.765  40.973  43.522  0.00  0.00    +0.000 A 
ATOM      8  C   UNL     1      22.467  40.005  44.253  0.00  0.00    +0.000 A 
BRANCH   3   9
ATOM      9  O   UNL     1      18.522  39.245  43.147  0.00  0.00    +0.000 OA
BRANCH   9  12
ATOM     10 BR   UNL     1      17.073  41.718  44.288  0.00  0.00    +0.000 Br
ATOM     11  C   UNL     1      17.001  39.914  44.873  0.00  0.00    +0.000 A 
ATOM     12  C   UNL     1      17.710  38.900  44.215  0.00  0.00    +0.000 A 
ATOM     13  C   UNL     1      16.209  39.616  45.987  0.00  0.00    +0.000 A 
ATOM     14  C   UNL     1      17.536  37.572  44.639  0.00  0.00    +0.000 A 
ATOM     15  C   UNL     1      16.103  38.301  46.443  0.00  0.00    +0.000 A 
ATOM     16  C   UNL     1      16.756  37.278  45.760  0.00  0.00    +0.000 A 
ENDBRANCH   9  12
ENDBRANCH   3   9
ENDBRANCH   1   8
BRANCH   2  17
ATOM     17  N   UNL     1      22.764  42.113  46.434  0.00  0.00    +0.000 N 
ATOM     18  C   UNL     1      21.674  41.569  47.085  0.00  0.00    +0.000 C 
ATOM     19  O   UNL     1      21.601  40.391  47.433  0.00  0.00    +0.000 OA
ATOM     20  H   UNL     1      22.815  43.082  46.268  0.00  0.00    +0.000 HD
BRANCH  18  21
ATOM     21  C   UNL     1      20.525  42.460  47.375  0.00  0.00    +0.000 A 
ATOM     22  C   UNL     1      20.023  43.280  46.356  0.00  0.00    +0.000 A 
ATOM     23  C   UNL     1      19.867  42.399  48.606  0.00  0.00    +0.000 A 
ATOM     24  C   UNL     1      18.879  44.047  46.570  0.00  0.00    +0.000 A 
ATOM     25  C   UNL     1      18.700  43.146  48.808  0.00  0.00    +0.000 A 
ATOM     26  C   UNL     1      18.208  43.965  47.790  0.00  0.00    +0.000 A 
BRANCH  22  27
ATOM     27  O   UNL     1      20.597  43.366  45.117  0.00  0.00    +0.000 OA
ATOM     28  H   UNL     1      20.140  43.789  44.417  0.00  0.00    +0.000 HD
ENDBRANCH  22  27
ENDBRANCH  18  21
ENDBRANCH   2  17
BRANCH   2  29
ATOM     29  C   UNL     1      25.139  41.304  46.690  0.00  0.00    +0.000 C 
ATOM     30  O   UNL     1      25.458  42.114  47.549  0.00  0.00    +0.000 OA
ATOM     31  OXT UNL     1      25.954  40.306  46.310  0.00  0.00    +0.000 OA
ENDBRANCH   2  29
TORSDOF 7
ENDMDL
MODEL 3
REMARK VINA RESULT:      -7.6      1.569      1.952
REMARK  Name = 319869
REMARK  7 active torsions:
REMARK  status: ('A' for Active; 'I' for Inactive)
REMARK    1  A    between atoms: C_3  and  O_5
REMARK    2  A    between atoms: O_5  and  C_8
REMARK    3  A    between atoms: C_14  and  C_15
REMARK    4  A    between atoms: CA_16  and  N_17
REMARK    5  A    between atoms: CA_16  and  C_18
REMARK    6  A    between atoms: C_19  and  C_23
REMARK    7  A    between atoms: C_24  and  O_26
REMARK                            x       y       z     vdW  Elec       q    Type
REMARK                         _______ _______ _______ _____ _____    ______ ____
ROOT
ATOM      1  C   UNL     1      18.828  43.367  45.188  0.00  0.00    +0.000 C 
ATOM      2  CA  UNL     1      17.743  42.634  44.900  0.00  0.00    +0.000 C 
ENDROOT
BRANCH   1   8
ATOM      3  C   UNL     1      22.007  41.817  47.510  0.00  0.00    +0.000 A 
ATOM      4  C   UNL     1      20.736  41.931  48.074  0.00  0.00    +0.000 A 
ATOM      5  C   UNL     1      22.291  42.457  46.301  0.00  0.00    +0.000 A 
ATOM      6  C   UNL     1      19.707  42.552  47.358  0.00  0.00    +0.000 A 
ATOM      7  C   UNL     1      21.260  43.059  45.576  0.00  0.00    +0.000 A 
ATOM      8  C   UNL     1      19.952  43.061  46.081  0.00  0.00    +0.000 A 
BRANCH   3   9
ATOM      9  O   UNL     1      22.933  41.047  48.183  0.00  0.00    +0.000 OA
BRANCH   9  12
ATOM     10 BR   UNL     1      25.547  40.597  46.608  0.00  0.00    +0.000 Br
ATOM     11  C   UNL     1      25.274  41.557  48.221  0.00  0.00    +0.000 A 
ATOM     12  C   UNL     1      24.001  41.687  48.792  0.00  0.00    +0.000 A 
ATOM     13  C   UNL     1      26.387  42.146  48.832  0.00  0.00    +0.000 A 
ATOM     14  C   UNL     1      23.853  42.493  49.932  0.00  0.00    +0.000 A 
ATOM     15  C   UNL     1      26.237  42.883  50.006  0.00  0.00    +0.000 A 
ATOM     16  C   UNL     1      24.967  43.068  50.548  0.00  0.00    +0.000 A 
ENDBRANCH   9  12
ENDBRANCH   3   9
ENDBRANCH   1   8
BRANCH   2  17
ATOM     17  N   UNL     1      17.562  41.327  45.327  0.00  0.00    +0.000 N 
ATOM     18  C   UNL     1      18.019  40.293  44.533  0.00  0.00    +0.000 C 
ATOM     19  O   UNL     1      18.692  40.457  43.517  0.00  0.00    +0.000 OA
ATOM     20  H   UNL     1      17.114  41.140  46.184  0.00  0.00    +0.000 HD
BRANCH  18  21
ATOM     21  C   UNL     1      17.670  38.909  44.931  0.00  0.00    +0.000 A 
ATOM     22  C   UNL     1      16.747  38.708  45.966  0.00  0.00    +0.000 A 
ATOM     23  C   UNL     1      18.153  37.815  44.209  0.00  0.00    +0.000 A 
ATOM     24  C   UNL     1      16.320  37.420  46.288  0.00  0.00    +0.000 A 
ATOM     25  C   UNL     1      17.699  36.526  44.513  0.00  0.00    +0.000 A 
ATOM     26  C   UNL     1      16.784  36.332  45.549  0.00  0.00    +0.000 A 
BRANCH  22  27
ATOM     27  O   UNL     1      16.208  39.733  46.695  0.00  0.00    +0.000 OA
ATOM     28  H   UNL     1      16.027  40.556  46.284  0.00  0.00    +0.000 HD
ENDBRANCH  22  27
ENDBRANCH  18  21
ENDBRANCH   2  17
BRANCH   2  29
ATOM     29  C   UNL     1      16.694  43.329  44.061  0.00  0.00    +0.000 C 
ATOM     30  O   UNL     1      16.219  44.423  44.327  0.00  0.00    +0.000 OA
ATOM     31  OXT UNL     1      16.373  42.663  42.938  0.00  0.00    +0.000 OA
ENDBRANCH   2  29
TORSDOF 7
ENDMDL
MODEL 4
REMARK VINA RESULT:      -7.2      1.404      1.862
REMARK  Name = 319869
REMARK  7 active torsions:
REMARK  status: ('A' for Active; 'I' for Inactive)
REMARK    1  A    between atoms: C_3  and  O_5
REMARK    2  A    between atoms: O_5  and  C_8
REMARK    3  A    between atoms: C_14  and  C_15
REMARK    4  A    between atoms: CA_16  and  N_17
REMARK    5  A    between atoms: CA_16  and  C_18
REMARK    6  A    between atoms: C_19  and  C_23
REMARK    7  A    between atoms: C_24  and  O_26
REMARK                            x       y       z     vdW  Elec       q    Type
REMARK                         _______ _______ _______ _____ _____    ______ ____
ROOT
ATOM      1  C   UNL     1      19.316  42.723  45.166  0.00  0.00    +0.000 C 
ATOM      2  CA  UNL     1      18.361  42.277  44.337  0.00  0.00    +0.000 C 
ENDROOT
BRANCH   1   8
ATOM      3  C   UNL     1      22.155  40.943  47.749  0.00  0.00    +0.000 A 
ATOM      4  C   UNL     1      21.733  40.254  46.612  0.00  0.00    +0.000 A 
ATOM      5  C   UNL     1      21.453  42.073  48.177  0.00  0.00    +0.000 A 
ATOM      6  C   UNL     1      20.708  40.778  45.817  0.00  0.00    +0.000 A 
ATOM      7  C   UNL     1      20.444  42.609  47.374  0.00  0.00    +0.000 A 
ATOM      8  C   UNL     1      20.105  41.990  46.163  0.00  0.00    +0.000 A 
BRANCH   3   9
ATOM      9  O   UNL     1      23.278  40.473  48.397  0.00  0.00    +0.000 OA
BRANCH   9  12
ATOM     10 BR   UNL     1      25.554  40.553  46.315  0.00  0.00    +0.000 Br
ATOM     11  C   UNL     1      25.382  41.523  47.937  0.00  0.00    +0.000 A 
ATOM     12  C   UNL     1      24.257  41.385  48.760  0.00  0.00    +0.000 A 
ATOM     13  C   UNL     1      26.417  42.395  48.293  0.00  0.00    +0.000 A 
ATOM     14  C   UNL     1      24.148  42.204  49.896  0.00  0.00    +0.000 A 
ATOM     15  C   UNL     1      26.329  43.150  49.463  0.00  0.00    +0.000 A 
ATOM     16  C   UNL     1      25.188  43.064  50.257  0.00  0.00    +0.000 A 
ENDBRANCH   9  12
ENDBRANCH   3   9
ENDBRANCH   1   8
BRANCH   2  17
ATOM     17  N   UNL     1      18.035  40.937  44.189  0.00  0.00    +0.000 N 
ATOM     18  C   UNL     1      17.271  40.322  45.160  0.00  0.00    +0.000 C 
ATOM     19  O   UNL     1      16.750  40.919  46.101  0.00  0.00    +0.000 OA
ATOM     20  H   UNL     1      18.345  40.432  43.402  0.00  0.00    +0.000 HD
BRANCH  18  21
ATOM     21  C   UNL     1      17.074  38.856  45.062  0.00  0.00    +0.000 A 
ATOM     22  C   UNL     1      17.917  38.108  44.229  0.00  0.00    +0.000 A 
ATOM     23  C   UNL     1      16.145  38.203  45.877  0.00  0.00    +0.000 A 
ATOM     24  C   UNL     1      17.824  36.718  44.198  0.00  0.00    +0.000 A 
ATOM     25  C   UNL     1      16.076  36.805  45.868  0.00  0.00    +0.000 A 
ATOM     26  C   UNL     1      16.915  36.067  45.032  0.00  0.00    +0.000 A 
BRANCH  22  27
ATOM     27  O   UNL     1      18.869  38.678  43.427  0.00  0.00    +0.000 OA
ATOM     28  H   UNL     1      18.948  38.412  42.532  0.00  0.00    +0.000 HD
ENDBRANCH  22  27
ENDBRANCH  18  21
ENDBRANCH   2  17
BRANCH   2  29
ATOM     29  C   UNL     1      17.633  43.344  43.550  0.00  0.00    +0.000 C 
ATOM     30  O   UNL     1      16.652  43.948  43.961  0.00  0.00    +0.000 OA
ATOM     31  OXT UNL     1      18.207  43.630  42.369  0.00  0.00    +0.000 OA
ENDBRANCH   2  29
TORSDOF 7
ENDMDL
MODEL 5
REMARK VINA RESULT:      -7.2      3.243      7.801
REMARK  Name = 319869
REMARK  7 active torsions:
REMARK  status: ('A' for Active; 'I' for Inactive)
REMARK    1  A    between atoms: C_3  and  O_5
REMARK    2  A    between atoms: O_5  and  C_8
REMARK    3  A    between atoms: C_14  and  C_15
REMARK    4  A    between atoms: CA_16  and  N_17
REMARK    5  A    between atoms: CA_16  and  C_18
REMARK    6  A    between atoms: C_19  and  C_23
REMARK    7  A    between atoms: C_24  and  O_26
REMARK                            x       y       z     vdW  Elec       q    Type
REMARK                         _______ _______ _______ _____ _____    ______ ____
ROOT
ATOM      1  C   UNL     1      23.220  39.000  44.644  0.00  0.00    +0.000 C 
ATOM      2  CA  UNL     1      23.793  38.810  45.841  0.00  0.00    +0.000 C 
ENDROOT
BRANCH   1   8
ATOM      3  C   UNL     1      20.150  41.821  43.929  0.00  0.00    +0.000 A 
ATOM      4  C   UNL     1      20.166  40.625  43.210  0.00  0.00    +0.000 A 
ATOM      5  C   UNL     1      21.273  42.204  44.666  0.00  0.00    +0.000 A 
ATOM      6  C   UNL     1      21.239  39.739  43.351  0.00  0.00    +0.000 A 
ATOM      7  C   UNL     1      22.337  41.313  44.824  0.00  0.00    +0.000 A 
ATOM      8  C   UNL     1      22.298  40.054  44.207  0.00  0.00    +0.000 A 
BRANCH   3   9
ATOM      9  O   UNL     1      18.993  42.572  43.887  0.00  0.00    +0.000 OA
BRANCH   9  12
ATOM     10 BR   UNL     1      16.822  40.385  44.033  0.00  0.00    +0.000 Br
ATOM     11  C   UNL     1      17.189  41.789  45.255  0.00  0.00    +0.000 A 
ATOM     12  C   UNL     1      18.243  42.689  45.046  0.00  0.00    +0.000 A 
ATOM     13  C   UNL     1      16.375  41.903  46.388  0.00  0.00    +0.000 A 
ATOM     14  C   UNL     1      18.521  43.643  46.038  0.00  0.00    +0.000 A 
ATOM     15  C   UNL     1      16.618  42.903  47.330  0.00  0.00    +0.000 A 
ATOM     16  C   UNL     1      17.700  43.764  47.161  0.00  0.00    +0.000 A 
ENDBRANCH   9  12
ENDBRANCH   3   9
ENDBRANCH   1   8
BRANCH   2  17
ATOM     17  N   UNL     1      23.701  39.711  46.890  0.00  0.00    +0.000 N 
ATOM     18  C   UNL     1      24.727  40.614  47.090  0.00  0.00    +0.000 C 
ATOM     19  O   UNL     1      25.675  40.756  46.318  0.00  0.00    +0.000 OA
ATOM     20  H   UNL     1      22.916  39.708  47.485  0.00  0.00    +0.000 HD
BRANCH  18  21
ATOM     21  C   UNL     1      24.683  41.455  48.310  0.00  0.00    +0.000 A 
ATOM     22  C   UNL     1      25.875  41.997  48.809  0.00  0.00    +0.000 A 
ATOM     23  C   UNL     1      23.462  41.810  48.889  0.00  0.00    +0.000 A 
ATOM     24  C   UNL     1      25.850  42.877  49.890  0.00  0.00    +0.000 A 
ATOM     25  C   UNL     1      23.436  42.719  49.954  0.00  0.00    +0.000 A 
ATOM     26  C   UNL     1      24.628  43.250  50.450  0.00  0.00    +0.000 A 
BRANCH  22  27
ATOM     27  O   UNL     1      27.103  41.718  48.273  0.00  0.00    +0.000 OA
ATOM     28  H   UNL     1      27.878  42.058  48.676  0.00  0.00    +0.000 HD
ENDBRANCH  22  27
ENDBRANCH  18  21
ENDBRANCH   2  17
BRANCH   2  29
ATOM     29  C   UNL     1      24.567  37.519  45.993  0.00  0.00    +0.000 C 
ATOM     30  O   UNL     1      25.636  37.293  45.445  0.00  0.00    +0.000 OA
ATOM     31  OXT UNL     1      24.007  36.652  46.854  0.00  0.00    +0.000 OA
ENDBRANCH   2  29
TORSDOF 7
ENDMDL
MODEL 6
REMARK VINA RESULT:      -7.1      2.884      7.098
REMARK  Name = 319869
REMARK  7 active torsions:
REMARK  status: ('A' for Active; 'I' for Inactive)
REMARK    1  A    between atoms: C_3  and  O_5
REMARK    2  A    between atoms: O_5  and  C_8
REMARK    3  A    between atoms: C_14  and  C_15
REMARK    4  A    between atoms: CA_16  and  N_17
REMARK    5  A    between atoms: CA_16  and  C_18
REMARK    6  A    between atoms: C_19  and  C_23
REMARK    7  A    between atoms: C_24  and  O_26
REMARK                            x       y       z     vdW  Elec       q    Type
REMARK                         _______ _______ _______ _____ _____    ______ ____
ROOT
ATOM      1  C   UNL     1      24.487  40.573  46.011  0.00  0.00    +0.000 C 
ATOM      2  CA  UNL     1      24.310  41.474  46.988  0.00  0.00    +0.000 C 
ENDROOT
BRANCH   1   8
ATOM      3  C   UNL     1      21.252  39.507  43.502  0.00  0.00    +0.000 A 
ATOM      4  C   UNL     1      21.716  38.594  44.450  0.00  0.00    +0.000 A 
ATOM      5  C   UNL     1      22.012  40.638  43.195  0.00  0.00    +0.000 A 
ATOM      6  C   UNL     1      22.859  38.888  45.201  0.00  0.00    +0.000 A 
ATOM      7  C   UNL     1      23.142  40.943  43.958  0.00  0.00    +0.000 A 
ATOM      8  C   UNL     1      23.537  40.092  45.000  0.00  0.00    +0.000 A 
BRANCH   3   9
ATOM      9  O   UNL     1      20.031  39.247  42.915  0.00  0.00    +0.000 OA
BRANCH   9  12
ATOM     10 BR   UNL     1      17.979  37.569  44.493  0.00  0.00    +0.000 Br
ATOM     11  C   UNL     1      17.898  39.398  43.996  0.00  0.00    +0.000 A 
ATOM     12  C   UNL     1      18.943  40.016  43.295  0.00  0.00    +0.000 A 
ATOM     13  C   UNL     1      16.758  40.127  44.355  0.00  0.00    +0.000 A 
ATOM     14  C   UNL     1      18.862  41.395  43.044  0.00  0.00    +0.000 A 
ATOM     15  C   UNL     1      16.659  41.481  44.034  0.00  0.00    +0.000 A 
ATOM     16  C   UNL     1      17.718  42.118  43.391  0.00  0.00    +0.000 A 
ENDBRANCH   9  12
ENDBRANCH   3   9
ENDBRANCH   1   8
BRANCH   2  17
ATOM     17  N   UNL     1      23.165  42.242  47.128  0.00  0.00    +0.000 N 
ATOM     18  C   UNL     1      21.985  41.626  47.494  0.00  0.00    +0.000 C 
ATOM     19  O   UNL     1      21.904  40.444  47.827  0.00  0.00    +0.000 OA
ATOM     20  H   UNL     1      23.193  43.214  46.968  0.00  0.00    +0.000 HD
BRANCH  18  21
ATOM     21  C   UNL     1      20.745  42.438  47.479  0.00  0.00    +0.000 A 
ATOM     22  C   UNL     1      20.368  43.086  46.295  0.00  0.00    +0.000 A 
ATOM     23  C   UNL     1      19.892  42.462  48.585  0.00  0.00    +0.000 A 
ATOM     24  C   UNL     1      19.155  43.768  46.221  0.00  0.00    +0.000 A 
ATOM     25  C   UNL     1      18.659  43.120  48.498  0.00  0.00    +0.000 A 
ATOM     26  C   UNL     1      18.293  43.768  47.318  0.00  0.00    +0.000 A 
BRANCH  22  27
ATOM     27  O   UNL     1      21.138  43.079  45.163  0.00  0.00    +0.000 OA
ATOM     28  H   UNL     1      20.733  43.011  44.321  0.00  0.00    +0.000 HD
ENDBRANCH  22  27
ENDBRANCH  18  21
ENDBRANCH   2  17
BRANCH   2  29
ATOM     29  C   UNL     1      25.460  41.610  47.961  0.00  0.00    +0.000 C 
ATOM     30  O   UNL     1      26.604  41.251  47.724  0.00  0.00    +0.000 OA
ATOM     31  OXT UNL     1      25.129  42.236  49.104  0.00  0.00    +0.000 OA
ENDBRANCH   2  29
TORSDOF 7
ENDMDL
MODEL 7
REMARK VINA RESULT:      -6.4      2.318      3.706
REMARK  Name = 319869
REMARK  7 active torsions:
REMARK  status: ('A' for Active; 'I' for Inactive)
REMARK    1  A    between atoms: C_3  and  O_5
REMARK    2  A    between atoms: O_5  and  C_8
REMARK    3  A    between atoms: C_14  and  C_15
REMARK    4  A    between atoms: CA_16  and  N_17
REMARK    5  A    between atoms: CA_16  and  C_18
REMARK    6  A    between atoms: C_19  and  C_23
REMARK    7  A    between atoms: C_24  and  O_26
REMARK                            x       y       z     vdW  Elec       q    Type
REMARK                         _______ _______ _______ _____ _____    ______ ____
ROOT
ATOM      1  C   UNL     1      20.553  39.157  44.142  0.00  0.00    +0.000 C 
ATOM      2  CA  UNL     1      19.356  39.744  44.283  0.00  0.00    +0.000 C 
ENDROOT
BRANCH   1   8
ATOM      3  C   UNL     1      24.143  40.322  46.052  0.00  0.00    +0.000 A 
ATOM      4  C   UNL     1      23.181  41.286  45.750  0.00  0.00    +0.000 A 
ATOM      5  C   UNL     1      24.050  39.046  45.489  0.00  0.00    +0.000 A 
ATOM      6  C   UNL     1      22.045  40.933  45.013  0.00  0.00    +0.000 A 
ATOM      7  C   UNL     1      22.907  38.687  44.770  0.00  0.00    +0.000 A 
ATOM      8  C   UNL     1      21.877  39.617  44.575  0.00  0.00    +0.000 A 
BRANCH   3   9
ATOM      9  O   UNL     1      25.151  40.680  46.924  0.00  0.00    +0.000 OA
BRANCH   9  12
ATOM     10 BR   UNL     1      27.681  41.581  48.442  0.00  0.00    +0.000 Br
ATOM     11  C   UNL     1      25.860  41.939  48.835  0.00  0.00    +0.000 A 
ATOM     12  C   UNL     1      24.824  41.470  48.015  0.00  0.00    +0.000 A 
ATOM     13  C   UNL     1      25.570  42.697  49.976  0.00  0.00    +0.000 A 
ATOM     14  C   UNL     1      23.506  41.853  48.308  0.00  0.00    +0.000 A 
ATOM     15  C   UNL     1      24.249  43.009  50.296  0.00  0.00    +0.000 A 
ATOM     16  C   UNL     1      23.218  42.598  49.454  0.00  0.00    +0.000 A 
ENDBRANCH   9  12
ENDBRANCH   3   9
ENDBRANCH   1   8
BRANCH   2  17
ATOM     17  N   UNL     1      19.147  40.897  45.025  0.00  0.00    +0.000 N 
ATOM     18  C   UNL     1      18.334  40.838  46.140  0.00  0.00    +0.000 C 
ATOM     19  O   UNL     1      17.872  39.793  46.596  0.00  0.00    +0.000 OA
ATOM     20  H   UNL     1      19.573  41.745  44.761  0.00  0.00    +0.000 HD
BRANCH  18  21
ATOM     21  C   UNL     1      17.997  42.111  46.820  0.00  0.00    +0.000 A 
ATOM     22  C   UNL     1      18.976  42.755  47.587  0.00  0.00    +0.000 A 
ATOM     23  C   UNL     1      16.764  42.732  46.604  0.00  0.00    +0.000 A 
ATOM     24  C   UNL     1      18.722  44.005  48.150  0.00  0.00    +0.000 A 
ATOM     25  C   UNL     1      16.522  44.002  47.143  0.00  0.00    +0.000 A 
ATOM     26  C   UNL     1      17.500  44.635  47.911  0.00  0.00    +0.000 A 
BRANCH  22  27
ATOM     27  O   UNL     1      20.216  42.221  47.816  0.00  0.00    +0.000 OA
ATOM     28  H   UNL     1      20.347  41.296  47.749  0.00  0.00    +0.000 HD
ENDBRANCH  22  27
ENDBRANCH  18  21
ENDBRANCH   2  17
BRANCH   2  29
ATOM     29  C   UNL     1      18.210  39.065  43.566  0.00  0.00    +0.000 C 
ATOM     30  O   UNL     1      17.976  37.867  43.631  0.00  0.00    +0.000 OA
ATOM     31  OXT UNL     1      17.413  39.915  42.896  0.00  0.00    +0.000 OA
ENDBRANCH   2  29
TORSDOF 7
ENDMDL
MODEL 8
REMARK VINA RESULT:      -6.3      2.271      3.847
REMARK  Name = 319869
REMARK  7 active torsions:
REMARK  status: ('A' for Active; 'I' for Inactive)
REMARK    1  A    between atoms: C_3  and  O_5
REMARK    2  A    between atoms: O_5  and  C_8
REMARK    3  A    between atoms: C_14  and  C_15
REMARK    4  A    between atoms: CA_16  and  N_17
REMARK    5  A    between atoms: CA_16  and  C_18
REMARK    6  A    between atoms: C_19  and  C_23
REMARK    7  A    between atoms: C_24  and  O_26
REMARK                            x       y       z     vdW  Elec       q    Type
REMARK                         _______ _______ _______ _____ _____    ______ ____
ROOT
ATOM      1  C   UNL     1      20.343  38.773  44.091  0.00  0.00    +0.000 C 
ATOM      2  CA  UNL     1      19.120  39.092  44.538  0.00  0.00    +0.000 C 
ENDROOT
BRANCH   1   8
ATOM      3  C   UNL     1      23.853  40.509  45.692  0.00  0.00    +0.000 A 
ATOM      4  C   UNL     1      22.865  41.332  45.150  0.00  0.00    +0.000 A 
ATOM      5  C   UNL     1      23.814  39.132  45.462  0.00  0.00    +0.000 A 
ATOM      6  C   UNL     1      21.757  40.765  44.511  0.00  0.00    +0.000 A 
ATOM      7  C   UNL     1      22.699  38.563  44.842  0.00  0.00    +0.000 A 
ATOM      8  C   UNL     1      21.642  39.376  44.412  0.00  0.00    +0.000 A 
BRANCH   3   9
ATOM      9  O   UNL     1      24.830  41.110  46.459  0.00  0.00    +0.000 OA
BRANCH   9  12
ATOM     10 BR   UNL     1      27.293  41.634  48.241  0.00  0.00    +0.000 Br
ATOM     11  C   UNL     1      25.459  41.947  48.614  0.00  0.00    +0.000 A 
ATOM     12  C   UNL     1      24.460  41.674  47.669  0.00  0.00    +0.000 A 
ATOM     13  C   UNL     1      25.124  42.470  49.868  0.00  0.00    +0.000 A 
ATOM     14  C   UNL     1      23.134  42.020  47.973  0.00  0.00    +0.000 A 
ATOM     15  C   UNL     1      23.792  42.741  50.183  0.00  0.00    +0.000 A 
ATOM     16  C   UNL     1      22.799  42.529  49.230  0.00  0.00    +0.000 A 
ENDBRANCH   9  12
ENDBRANCH   3   9
ENDBRANCH   1   8
BRANCH   2  17
ATOM     17  N   UNL     1      18.885  40.021  45.540  0.00  0.00    +0.000 N 
ATOM     18  C   UNL     1      18.614  41.330  45.191  0.00  0.00    +0.000 C 
ATOM     19  O   UNL     1      18.445  41.708  44.033  0.00  0.00    +0.000 OA
ATOM     20  H   UNL     1      18.911  39.752  46.487  0.00  0.00    +0.000 HD
BRANCH  18  21
ATOM     21  C   UNL     1      18.528  42.334  46.278  0.00  0.00    +0.000 A 
ATOM     22  C   UNL     1      17.460  43.240  46.287  0.00  0.00    +0.000 A 
ATOM     23  C   UNL     1      19.425  42.305  47.349  0.00  0.00    +0.000 A 
ATOM     24  C   UNL     1      17.296  44.124  47.353  0.00  0.00    +0.000 A 
ATOM     25  C   UNL     1      19.239  43.171  48.434  0.00  0.00    +0.000 A 
ATOM     26  C   UNL     1      18.176  44.076  48.433  0.00  0.00    +0.000 A 
BRANCH  22  27
ATOM     27  O   UNL     1      16.527  43.304  45.287  0.00  0.00    +0.000 OA
ATOM     28  H   UNL     1      16.736  43.729  44.478  0.00  0.00    +0.000 HD
ENDBRANCH  22  27
ENDBRANCH  18  21
ENDBRANCH   2  17
BRANCH   2  29
ATOM     29  C   UNL     1      17.974  38.366  43.870  0.00  0.00    +0.000 C 
ATOM     30  O   UNL     1      17.811  37.155  43.916  0.00  0.00    +0.000 OA
ATOM     31  OXT UNL     1      17.094  39.184  43.268  0.00  0.00    +0.000 OA
ENDBRANCH   2  29
TORSDOF 7
ENDMDL
MODEL 9
REMARK VINA RESULT:      -6.1      2.796      7.990
REMARK  Name = 319869
REMARK  7 active torsions:
REMARK  status: ('A' for Active; 'I' for Inactive)
REMARK    1  A    between atoms: C_3  and  O_5
REMARK    2  A    between atoms: O_5  and  C_8
REMARK    3  A    between atoms: C_14  and  C_15
REMARK    4  A    between atoms: CA_16  and  N_17
REMARK    5  A    between atoms: CA_16  and  C_18
REMARK    6  A    between atoms: C_19  and  C_23
REMARK    7  A    between atoms: C_24  and  O_26
REMARK                            x       y       z     vdW  Elec       q    Type
REMARK                         _______ _______ _______ _____ _____    ______ ____
ROOT
ATOM      1  C   UNL     1      23.130  39.118  44.562  0.00  0.00    +0.000 C 
ATOM      2  CA  UNL     1      23.909  39.117  45.653  0.00  0.00    +0.000 C 
ENDROOT
BRANCH   1   8
ATOM      3  C   UNL     1      19.336  40.962  44.243  0.00  0.00    +0.000 A 
ATOM      4  C   UNL     1      19.683  39.944  43.354  0.00  0.00    +0.000 A 
ATOM      5  C   UNL     1      20.320  41.552  45.041  0.00  0.00    +0.000 A 
ATOM      6  C   UNL     1      20.976  39.410  43.372  0.00  0.00    +0.000 A 
ATOM      7  C   UNL     1      21.605  41.007  45.076  0.00  0.00    +0.000 A 
ATOM      8  C   UNL     1      21.921  39.899  44.277  0.00  0.00    +0.000 A 
BRANCH   3   9
ATOM      9  O   UNL     1      18.008  41.330  44.301  0.00  0.00    +0.000 OA
BRANCH   9  12
ATOM     10 BR   UNL     1      17.143  43.072  46.696  0.00  0.00    +0.000 Br
ATOM     11  C   UNL     1      16.708  41.266  46.313  0.00  0.00    +0.000 A 
ATOM     12  C   UNL     1      17.169  40.629  45.153  0.00  0.00    +0.000 A 
ATOM     13  C   UNL     1      15.900  40.577  47.225  0.00  0.00    +0.000 A 
ATOM     14  C   UNL     1      16.730  39.323  44.881  0.00  0.00    +0.000 A 
ATOM     15  C   UNL     1      15.531  39.255  46.978  0.00  0.00    +0.000 A 
ATOM     16  C   UNL     1      15.935  38.633  45.800  0.00  0.00    +0.000 A 
ENDBRANCH   9  12
ENDBRANCH   3   9
ENDBRANCH   1   8
BRANCH   2  17
ATOM     17  N   UNL     1      23.760  40.008  46.705  0.00  0.00    +0.000 N 
ATOM     18  C   UNL     1      24.709  40.996  46.886  0.00  0.00    +0.000 C 
ATOM     19  O   UNL     1      25.625  41.218  46.096  0.00  0.00    +0.000 OA
ATOM     20  H   UNL     1      22.989  39.938  47.314  0.00  0.00    +0.000 HD
BRANCH  18  21
ATOM     21  C   UNL     1      24.616  41.830  48.108  0.00  0.00    +0.000 A 
ATOM     22  C   UNL     1      23.359  42.056  48.686  0.00  0.00    +0.000 A 
ATOM     23  C   UNL     1      25.769  42.287  48.751  0.00  0.00    +0.000 A 
ATOM     24  C   UNL     1      23.253  42.747  49.892  0.00  0.00    +0.000 A 
ATOM     25  C   UNL     1      25.662  42.952  49.979  0.00  0.00    +0.000 A 
ATOM     26  C   UNL     1      24.408  43.178  50.546  0.00  0.00    +0.000 A 
BRANCH  22  27
ATOM     27  O   UNL     1      22.191  41.612  48.128  0.00  0.00    +0.000 OA
ATOM     28  H   UNL     1      22.120  41.523  47.198  0.00  0.00    +0.000 HD
ENDBRANCH  22  27
ENDBRANCH  18  21
ENDBRANCH   2  17
BRANCH   2  29
ATOM     29  C   UNL     1      24.990  38.060  45.680  0.00  0.00    +0.000 C 
ATOM     30  O   UNL     1      26.157  38.266  45.380  0.00  0.00    +0.000 OA
ATOM     31  OXT UNL     1      24.569  36.868  46.137  0.00  0.00    +0.000 OA
ENDBRANCH   2  29
TORSDOF 7
ENDMDL
