MODEL 1
REMARK VINA RESULT:      -8.4      0.000      0.000
REMARK  Name = 323164
REMARK  6 active torsions:
REMARK  status: ('A' for Active; 'I' for Inactive)
REMARK    1  A    between atoms: C_3  and  O_5
REMARK    2  A    between atoms: O_5  and  C_8
REMARK    3  A    between atoms: C_14  and  C_15
REMARK    4  A    between atoms: C_16  and  N_17
REMARK    5  A    between atoms: C_16  and  C_18
REMARK    6  A    between atoms: C_19  and  C_23
REMARK                            x       y       z     vdW  Elec       q    Type
REMARK                         _______ _______ _______ _____ _____    ______ ____
ROOT
ATOM      1  C   UNL     1      20.129  42.478  43.527  0.00  0.00    +0.000 C 
ATOM      2  C   UNL     1      18.999  41.846  43.146  0.00  0.00    +0.000 C 
ENDROOT
BRANCH   1   8
ATOM      3  C   UNL     1      22.432  41.239  46.888  0.00  0.00    +0.000 A 
ATOM      4  C   UNL     1      21.930  42.541  46.842  0.00  0.00    +0.000 A 
ATOM      5  C   UNL     1      22.401  40.450  45.733  0.00  0.00    +0.000 A 
ATOM      6  C   UNL     1      21.264  42.991  45.692  0.00  0.00    +0.000 A 
ATOM      7  C   UNL     1      21.707  40.889  44.601  0.00  0.00    +0.000 A 
ATOM      8  C   UNL     1      21.095  42.146  44.587  0.00  0.00    +0.000 A 
BRANCH   3   9
ATOM      9  O   UNL     1      22.924  40.768  48.092  0.00  0.00    +0.000 OA
BRANCH   9  12
ATOM     10 BR   UNL     1      25.706  40.615  46.703  0.00  0.00    +0.000 Br
ATOM     11  C   UNL     1      25.198  41.546  48.276  0.00  0.00    +0.000 A 
ATOM     12  C   UNL     1      23.876  41.538  48.746  0.00  0.00    +0.000 A 
ATOM     13  C   UNL     1      26.190  42.263  48.960  0.00  0.00    +0.000 A 
ATOM     14  C   UNL     1      23.557  42.339  49.854  0.00  0.00    +0.000 A 
ATOM     15  C   UNL     1      25.866  42.999  50.100  0.00  0.00    +0.000 A 
ATOM     16  C   UNL     1      24.547  43.047  50.539  0.00  0.00    +0.000 A 
ENDBRANCH   9  12
ENDBRANCH   3   9
ENDBRANCH   1   8
BRANCH   2  17
ATOM     17  C   UNL     1      18.156  42.552  42.112  0.00  0.00    +0.000 C 
ATOM     18  O   UNL     1      18.374  43.688  41.708  0.00  0.00    +0.000 OA
ATOM     19  N   UNL     1      17.138  41.804  41.592  0.00  0.00    +0.000 N 
ATOM     20  H   UNL     1      16.976  40.893  41.927  0.00  0.00    +0.000 HD
ATOM     21  H   UNL     1      16.565  42.176  40.883  0.00  0.00    +0.000 HD
ENDBRANCH   2  17
BRANCH   2  22
ATOM     22  N   UNL     1      18.551  40.626  43.629  0.00  0.00    +0.000 N 
ATOM     23  C   UNL     1      17.648  40.554  44.672  0.00  0.00    +0.000 C 
ATOM     24  O   UNL     1      17.274  41.522  45.328  0.00  0.00    +0.000 OA
ATOM     25  H   UNL     1      18.885  39.794  43.220  0.00  0.00    +0.000 HD
BRANCH  23  26
ATOM     26  C   UNL     1      17.214  39.202  45.103  0.00  0.00    +0.000 A 
ATOM     27  C   UNL     1      17.746  38.110  44.406  0.00  0.00    +0.000 A 
ATOM     28  C   UNL     1      16.405  38.994  46.224  0.00  0.00    +0.000 A 
ATOM     29  C   UNL     1      17.500  36.812  44.841  0.00  0.00    +0.000 A 
ATOM     30  C   UNL     1      16.170  37.687  46.663  0.00  0.00    +0.000 A 
ATOM     31  C   UNL     1      16.725  36.601  45.981  0.00  0.00    +0.000 A 
ENDBRANCH  23  26
ENDBRANCH   2  22
TORSDOF 6
ENDMDL
MODEL 2
REMARK VINA RESULT:      -7.0      3.553      7.851
REMARK  Name = 323164
REMARK  6 active torsions:
REMARK  status: ('A' for Active; 'I' for Inactive)
REMARK    1  A    between atoms: C_3  and  O_5
REMARK    2  A    between atoms: O_5  and  C_8
REMARK    3  A    between atoms: C_14  and  C_15
REMARK    4  A    between atoms: C_16  and  N_17
REMARK    5  A    between atoms: C_16  and  C_18
REMARK    6  A    between atoms: C_19  and  C_23
REMARK                            x       y       z     vdW  Elec       q    Type
REMARK                         _______ _______ _______ _____ _____    ______ ____
ROOT
ATOM      1  C   UNL     1      23.150  39.021  44.615  0.00  0.00    +0.000 C 
ATOM      2  C   UNL     1      23.835  38.850  45.765  0.00  0.00    +0.000 C 
ENDROOT
BRANCH   1   8
ATOM      3  C   UNL     1      20.068  41.879  43.929  0.00  0.00    +0.000 A 
ATOM      4  C   UNL     1      20.105  40.712  43.163  0.00  0.00    +0.000 A 
ATOM      5  C   UNL     1      21.174  42.219  44.716  0.00  0.00    +0.000 A 
ATOM      6  C   UNL     1      21.177  39.817  43.307  0.00  0.00    +0.000 A 
ATOM      7  C   UNL     1      22.224  41.310  44.882  0.00  0.00    +0.000 A 
ATOM      8  C   UNL     1      22.212  40.082  44.213  0.00  0.00    +0.000 A 
BRANCH   3   9
ATOM      9  O   UNL     1      18.919  42.648  43.895  0.00  0.00    +0.000 OA
BRANCH   9  12
ATOM     10 BR   UNL     1      16.790  40.388  44.115  0.00  0.00    +0.000 Br
ATOM     11  C   UNL     1      17.137  41.831  45.296  0.00  0.00    +0.000 A 
ATOM     12  C   UNL     1      18.173  42.747  45.061  0.00  0.00    +0.000 A 
ATOM     13  C   UNL     1      16.327  41.953  46.434  0.00  0.00    +0.000 A 
ATOM     14  C   UNL     1      18.436  43.722  46.036  0.00  0.00    +0.000 A 
ATOM     15  C   UNL     1      16.562  42.972  47.359  0.00  0.00    +0.000 A 
ATOM     16  C   UNL     1      17.625  43.847  47.166  0.00  0.00    +0.000 A 
ENDBRANCH   9  12
ENDBRANCH   3   9
ENDBRANCH   1   8
BRANCH   2  17
ATOM     17  C   UNL     1      24.599  37.555  45.900  0.00  0.00    +0.000 C 
ATOM     18  O   UNL     1      25.720  37.369  45.441  0.00  0.00    +0.000 OA
ATOM     19  N   UNL     1      23.972  36.592  46.639  0.00  0.00    +0.000 N 
ATOM     20  H   UNL     1      23.072  36.757  47.001  0.00  0.00    +0.000 HD
ATOM     21  H   UNL     1      24.420  35.732  46.809  0.00  0.00    +0.000 HD
ENDBRANCH   2  17
BRANCH   2  22
ATOM     22  N   UNL     1      23.881  39.747  46.821  0.00  0.00    +0.000 N 
ATOM     23  C   UNL     1      24.884  40.694  46.916  0.00  0.00    +0.000 C 
ATOM     24  O   UNL     1      25.860  40.739  46.175  0.00  0.00    +0.000 OA
ATOM     25  H   UNL     1      23.185  39.708  47.517  0.00  0.00    +0.000 HD
BRANCH  23  26
ATOM     26  C   UNL     1      24.834  41.621  48.073  0.00  0.00    +0.000 A 
ATOM     27  C   UNL     1      23.585  41.824  48.675  0.00  0.00    +0.000 A 
ATOM     28  C   UNL     1      25.983  42.189  48.632  0.00  0.00    +0.000 A 
ATOM     29  C   UNL     1      23.482  42.564  49.848  0.00  0.00    +0.000 A 
ATOM     30  C   UNL     1      25.874  42.923  49.817  0.00  0.00    +0.000 A 
ATOM     31  C   UNL     1      24.631  43.101  50.429  0.00  0.00    +0.000 A 
ENDBRANCH  23  26
ENDBRANCH   2  22
TORSDOF 6
ENDMDL
MODEL 3
REMARK VINA RESULT:      -7.0      1.798      2.383
REMARK  Name = 323164
REMARK  6 active torsions:
REMARK  status: ('A' for Active; 'I' for Inactive)
REMARK    1  A    between atoms: C_3  and  O_5
REMARK    2  A    between atoms: O_5  and  C_8
REMARK    3  A    between atoms: C_14  and  C_15
REMARK    4  A    between atoms: C_16  and  N_17
REMARK    5  A    between atoms: C_16  and  C_18
REMARK    6  A    between atoms: C_19  and  C_23
REMARK                            x       y       z     vdW  Elec       q    Type
REMARK                         _______ _______ _______ _____ _____    ______ ____
ROOT
ATOM      1  C   UNL     1      18.850  43.412  45.347  0.00  0.00    +0.000 C 
ATOM      2  C   UNL     1      17.760  42.693  45.005  0.00  0.00    +0.000 C 
ENDROOT
BRANCH   1   8
ATOM      3  C   UNL     1      22.000  41.785  47.706  0.00  0.00    +0.000 A 
ATOM      4  C   UNL     1      20.813  42.183  48.326  0.00  0.00    +0.000 A 
ATOM      5  C   UNL     1      22.243  42.162  46.381  0.00  0.00    +0.000 A 
ATOM      6  C   UNL     1      19.814  42.820  47.574  0.00  0.00    +0.000 A 
ATOM      7  C   UNL     1      21.232  42.766  45.626  0.00  0.00    +0.000 A 
ATOM      8  C   UNL     1      19.993  43.059  46.205  0.00  0.00    +0.000 A 
BRANCH   3   9
ATOM      9  O   UNL     1      22.887  41.008  48.429  0.00  0.00    +0.000 OA
BRANCH   9  12
ATOM     10 BR   UNL     1      24.025  42.969  50.562  0.00  0.00    +0.000 Br
ATOM     11  C   UNL     1      24.906  42.138  49.102  0.00  0.00    +0.000 A 
ATOM     12  C   UNL     1      24.244  41.241  48.252  0.00  0.00    +0.000 A 
ATOM     13  C   UNL     1      26.260  42.440  48.899  0.00  0.00    +0.000 A 
ATOM     14  C   UNL     1      24.991  40.584  47.261  0.00  0.00    +0.000 A 
ATOM     15  C   UNL     1      26.971  41.828  47.865  0.00  0.00    +0.000 A 
ATOM     16  C   UNL     1      26.338  40.890  47.055  0.00  0.00    +0.000 A 
ENDBRANCH   9  12
ENDBRANCH   3   9
ENDBRANCH   1   8
BRANCH   2  17
ATOM     17  C   UNL     1      16.697  43.425  44.222  0.00  0.00    +0.000 C 
ATOM     18  O   UNL     1      16.285  44.544  44.504  0.00  0.00    +0.000 OA
ATOM     19  N   UNL     1      16.248  42.769  43.111  0.00  0.00    +0.000 N 
ATOM     20  H   UNL     1      16.588  41.871  42.898  0.00  0.00    +0.000 HD
ATOM     21  H   UNL     1      15.583  43.195  42.523  0.00  0.00    +0.000 HD
ENDBRANCH   2  17
BRANCH   2  22
ATOM     22  N   UNL     1      17.535  41.362  45.322  0.00  0.00    +0.000 N 
ATOM     23  C   UNL     1      17.927  40.345  44.472  0.00  0.00    +0.000 C 
ATOM     24  O   UNL     1      18.374  40.524  43.344  0.00  0.00    +0.000 OA
ATOM     25  H   UNL     1      17.087  41.137  46.169  0.00  0.00    +0.000 HD
BRANCH  23  26
ATOM     26  C   UNL     1      17.660  38.953  44.911  0.00  0.00    +0.000 A 
ATOM     27  C   UNL     1      16.817  38.783  46.016  0.00  0.00    +0.000 A 
ATOM     28  C   UNL     1      18.121  37.840  44.201  0.00  0.00    +0.000 A 
ATOM     29  C   UNL     1      16.406  37.510  46.397  0.00  0.00    +0.000 A 
ATOM     30  C   UNL     1      17.696  36.563  44.583  0.00  0.00    +0.000 A 
ATOM     31  C   UNL     1      16.833  36.400  45.669  0.00  0.00    +0.000 A 
ENDBRANCH  23  26
ENDBRANCH   2  22
TORSDOF 6
ENDMDL
MODEL 4
REMARK VINA RESULT:      -6.5      2.396      3.689
REMARK  Name = 323164
REMARK  6 active torsions:
REMARK  status: ('A' for Active; 'I' for Inactive)
REMARK    1  A    between atoms: C_3  and  O_5
REMARK    2  A    between atoms: O_5  and  C_8
REMARK    3  A    between atoms: C_14  and  C_15
REMARK    4  A    between atoms: C_16  and  N_17
REMARK    5  A    between atoms: C_16  and  C_18
REMARK    6  A    between atoms: C_19  and  C_23
REMARK                            x       y       z     vdW  Elec       q    Type
REMARK                         _______ _______ _______ _____ _____    ______ ____
ROOT
ATOM      1  C   UNL     1      20.308  39.021  44.093  0.00  0.00    +0.000 C 
ATOM      2  C   UNL     1      19.069  39.533  44.248  0.00  0.00    +0.000 C 
ENDROOT
BRANCH   1   8
ATOM      3  C   UNL     1      23.919  40.494  45.803  0.00  0.00    +0.000 A 
ATOM      4  C   UNL     1      22.911  41.393  45.450  0.00  0.00    +0.000 A 
ATOM      5  C   UNL     1      23.847  39.170  45.357  0.00  0.00    +0.000 A 
ATOM      6  C   UNL     1      21.764  40.928  44.787  0.00  0.00    +0.000 A 
ATOM      7  C   UNL     1      22.688  38.704  44.727  0.00  0.00    +0.000 A 
ATOM      8  C   UNL     1      21.619  39.570  44.477  0.00  0.00    +0.000 A 
BRANCH   3   9
ATOM      9  O   UNL     1      24.950  40.949  46.606  0.00  0.00    +0.000 OA
BRANCH   9  12
ATOM     10 BR   UNL     1      27.452  41.618  48.332  0.00  0.00    +0.000 Br
ATOM     11  C   UNL     1      25.619  41.936  48.700  0.00  0.00    +0.000 A 
ATOM     12  C   UNL     1      24.611  41.601  47.784  0.00  0.00    +0.000 A 
ATOM     13  C   UNL     1      25.293  42.535  49.925  0.00  0.00    +0.000 A 
ATOM     14  C   UNL     1      23.289  41.967  48.082  0.00  0.00    +0.000 A 
ATOM     15  C   UNL     1      23.964  42.830  50.233  0.00  0.00    +0.000 A 
ATOM     16  C   UNL     1      22.964  42.558  49.305  0.00  0.00    +0.000 A 
ENDBRANCH   9  12
ENDBRANCH   3   9
ENDBRANCH   1   8
BRANCH   2  17
ATOM     17  C   UNL     1      17.944  38.766  43.594  0.00  0.00    +0.000 C 
ATOM     18  O   UNL     1      17.785  37.556  43.701  0.00  0.00    +0.000 OA
ATOM     19  N   UNL     1      17.052  39.534  42.902  0.00  0.00    +0.000 N 
ATOM     20  H   UNL     1      17.194  40.505  42.824  0.00  0.00    +0.000 HD
ATOM     21  H   UNL     1      16.267  39.117  42.478  0.00  0.00    +0.000 HD
ENDBRANCH   2  17
BRANCH   2  22
ATOM     22  N   UNL     1      18.752  40.693  44.937  0.00  0.00    +0.000 N 
ATOM     23  C   UNL     1      18.321  40.655  46.250  0.00  0.00    +0.000 C 
ATOM     24  O   UNL     1      18.065  39.623  46.861  0.00  0.00    +0.000 OA
ATOM     25  H   UNL     1      18.834  41.562  44.481  0.00  0.00    +0.000 HD
BRANCH  23  26
ATOM     26  C   UNL     1      18.026  41.953  46.905  0.00  0.00    +0.000 A 
ATOM     27  C   UNL     1      18.999  42.465  47.773  0.00  0.00    +0.000 A 
ATOM     28  C   UNL     1      16.891  42.709  46.600  0.00  0.00    +0.000 A 
ATOM     29  C   UNL     1      18.860  43.740  48.312  0.00  0.00    +0.000 A 
ATOM     30  C   UNL     1      16.761  43.994  47.136  0.00  0.00    +0.000 A 
ATOM     31  C   UNL     1      17.747  44.512  47.980  0.00  0.00    +0.000 A 
ENDBRANCH  23  26
ENDBRANCH   2  22
TORSDOF 6
ENDMDL
MODEL 5
REMARK VINA RESULT:      -6.0      2.502      3.882
REMARK  Name = 323164
REMARK  6 active torsions:
REMARK  status: ('A' for Active; 'I' for Inactive)
REMARK    1  A    between atoms: C_3  and  O_5
REMARK    2  A    between atoms: O_5  and  C_8
REMARK    3  A    between atoms: C_14  and  C_15
REMARK    4  A    between atoms: C_16  and  N_17
REMARK    5  A    between atoms: C_16  and  C_18
REMARK    6  A    between atoms: C_19  and  C_23
REMARK                            x       y       z     vdW  Elec       q    Type
REMARK                         _______ _______ _______ _____ _____    ______ ____
ROOT
ATOM      1  C   UNL     1      21.024  39.205  43.822  0.00  0.00    +0.000 C 
ATOM      2  C   UNL     1      19.822  39.640  44.255  0.00  0.00    +0.000 C 
ENDROOT
BRANCH   1   8
ATOM      3  C   UNL     1      24.700  40.161  45.746  0.00  0.00    +0.000 A 
ATOM      4  C   UNL     1      23.919  41.187  45.212  0.00  0.00    +0.000 A 
ATOM      5  C   UNL     1      24.408  38.832  45.419  0.00  0.00    +0.000 A 
ATOM      6  C   UNL     1      22.762  40.873  44.482  0.00  0.00    +0.000 A 
ATOM      7  C   UNL     1      23.237  38.523  44.720  0.00  0.00    +0.000 A 
ATOM      8  C   UNL     1      22.381  39.539  44.285  0.00  0.00    +0.000 A 
BRANCH   3   9
ATOM      9  O   UNL     1      25.730  40.502  46.605  0.00  0.00    +0.000 OA
BRANCH   9  12
ATOM     10 BR   UNL     1      23.339  39.376  48.250  0.00  0.00    +0.000 Br
ATOM     11  C   UNL     1      24.340  40.965  48.519  0.00  0.00    +0.000 A 
ATOM     12  C   UNL     1      25.423  41.305  47.695  0.00  0.00    +0.000 A 
ATOM     13  C   UNL     1      23.970  41.797  49.585  0.00  0.00    +0.000 A 
ATOM     14  C   UNL     1      26.181  42.439  48.024  0.00  0.00    +0.000 A 
ATOM     15  C   UNL     1      24.696  42.958  49.855  0.00  0.00    +0.000 A 
ATOM     16  C   UNL     1      25.809  43.272  49.082  0.00  0.00    +0.000 A 
ENDBRANCH   9  12
ENDBRANCH   3   9
ENDBRANCH   1   8
BRANCH   2  17
ATOM     17  C   UNL     1      18.624  39.205  43.446  0.00  0.00    +0.000 C 
ATOM     18  O   UNL     1      17.948  39.962  42.760  0.00  0.00    +0.000 OA
ATOM     19  N   UNL     1      18.365  37.864  43.477  0.00  0.00    +0.000 N 
ATOM     20  H   UNL     1      18.917  37.269  44.034  0.00  0.00    +0.000 HD
ATOM     21  H   UNL     1      17.625  37.492  42.945  0.00  0.00    +0.000 HD
ENDBRANCH   2  17
BRANCH   2  22
ATOM     22  N   UNL     1      19.603  40.451  45.358  0.00  0.00    +0.000 N 
ATOM     23  C   UNL     1      19.405  41.812  45.221  0.00  0.00    +0.000 C 
ATOM     24  O   UNL     1      19.531  42.423  44.165  0.00  0.00    +0.000 OA
ATOM     25  H   UNL     1      19.589  40.048  46.257  0.00  0.00    +0.000 HD
BRANCH  23  26
ATOM     26  C   UNL     1      19.159  42.590  46.460  0.00  0.00    +0.000 A 
ATOM     27  C   UNL     1      18.103  43.511  46.436  0.00  0.00    +0.000 A 
ATOM     28  C   UNL     1      19.855  42.352  47.649  0.00  0.00    +0.000 A 
ATOM     29  C   UNL     1      17.720  44.171  47.598  0.00  0.00    +0.000 A 
ATOM     30  C   UNL     1      19.459  43.011  48.816  0.00  0.00    +0.000 A 
ATOM     31  C   UNL     1      18.388  43.909  48.794  0.00  0.00    +0.000 A 
ENDBRANCH  23  26
ENDBRANCH   2  22
TORSDOF 6
ENDMDL
MODEL 6
REMARK VINA RESULT:      -5.9      3.123      8.146
REMARK  Name = 323164
REMARK  6 active torsions:
REMARK  status: ('A' for Active; 'I' for Inactive)
REMARK    1  A    between atoms: C_3  and  O_5
REMARK    2  A    between atoms: O_5  and  C_8
REMARK    3  A    between atoms: C_14  and  C_15
REMARK    4  A    between atoms: C_16  and  N_17
REMARK    5  A    between atoms: C_16  and  C_18
REMARK    6  A    between atoms: C_19  and  C_23
REMARK                            x       y       z     vdW  Elec       q    Type
REMARK                         _______ _______ _______ _____ _____    ______ ____
ROOT
ATOM      1  C   UNL     1      23.136  38.956  44.638  0.00  0.00    +0.000 C 
ATOM      2  C   UNL     1      23.948  38.869  45.712  0.00  0.00    +0.000 C 
ENDROOT
BRANCH   1   8
ATOM      3  C   UNL     1      19.378  40.938  44.338  0.00  0.00    +0.000 A 
ATOM      4  C   UNL     1      19.789  40.086  43.311  0.00  0.00    +0.000 A 
ATOM      5  C   UNL     1      20.301  41.334  45.312  0.00  0.00    +0.000 A 
ATOM      6  C   UNL     1      21.070  39.514  43.349  0.00  0.00    +0.000 A 
ATOM      7  C   UNL     1      21.565  40.737  45.366  0.00  0.00    +0.000 A 
ATOM      8  C   UNL     1      21.943  39.789  44.410  0.00  0.00    +0.000 A 
BRANCH   3   9
ATOM      9  O   UNL     1      18.056  41.343  44.364  0.00  0.00    +0.000 OA
BRANCH   9  12
ATOM     10 BR   UNL     1      17.067  43.095  46.740  0.00  0.00    +0.000 Br
ATOM     11  C   UNL     1      16.678  41.281  46.341  0.00  0.00    +0.000 A 
ATOM     12  C   UNL     1      17.184  40.651  45.194  0.00  0.00    +0.000 A 
ATOM     13  C   UNL     1      15.850  40.580  47.229  0.00  0.00    +0.000 A 
ATOM     14  C   UNL     1      16.764  39.342  44.912  0.00  0.00    +0.000 A 
ATOM     15  C   UNL     1      15.498  39.255  46.966  0.00  0.00    +0.000 A 
ATOM     16  C   UNL     1      15.945  38.642  45.800  0.00  0.00    +0.000 A 
ENDBRANCH   9  12
ENDBRANCH   3   9
ENDBRANCH   1   8
BRANCH   2  17
ATOM     17  C   UNL     1      25.001  37.788  45.666  0.00  0.00    +0.000 C 
ATOM     18  O   UNL     1      26.150  37.966  45.281  0.00  0.00    +0.000 OA
ATOM     19  N   UNL     1      24.600  36.575  46.149  0.00  0.00    +0.000 N 
ATOM     20  H   UNL     1      23.673  36.448  46.454  0.00  0.00    +0.000 HD
ATOM     21  H   UNL     1      25.239  35.827  46.192  0.00  0.00    +0.000 HD
ENDBRANCH   2  17
BRANCH   2  22
ATOM     22  N   UNL     1      23.886  39.671  46.841  0.00  0.00    +0.000 N 
ATOM     23  C   UNL     1      24.771  40.715  47.031  0.00  0.00    +0.000 C 
ATOM     24  O   UNL     1      25.737  40.938  46.309  0.00  0.00    +0.000 OA
ATOM     25  H   UNL     1      23.197  39.491  47.522  0.00  0.00    +0.000 HD
BRANCH  23  26
ATOM     26  C   UNL     1      24.609  41.527  48.262  0.00  0.00    +0.000 A 
ATOM     27  C   UNL     1      25.763  42.115  48.795  0.00  0.00    +0.000 A 
ATOM     28  C   UNL     1      23.357  41.806  48.820  0.00  0.00    +0.000 A 
ATOM     29  C   UNL     1      25.671  43.004  49.860  0.00  0.00    +0.000 A 
ATOM     30  C   UNL     1      23.270  42.708  49.884  0.00  0.00    +0.000 A 
ATOM     31  C   UNL     1      24.421  43.314  50.395  0.00  0.00    +0.000 A 
ENDBRANCH  23  26
ENDBRANCH   2  22
TORSDOF 6
ENDMDL
MODEL 7
REMARK VINA RESULT:      -5.9      3.288      7.210
REMARK  Name = 323164
REMARK  6 active torsions:
REMARK  status: ('A' for Active; 'I' for Inactive)
REMARK    1  A    between atoms: C_3  and  O_5
REMARK    2  A    between atoms: O_5  and  C_8
REMARK    3  A    between atoms: C_14  and  C_15
REMARK    4  A    between atoms: C_16  and  N_17
REMARK    5  A    between atoms: C_16  and  C_18
REMARK    6  A    between atoms: C_19  and  C_23
REMARK                            x       y       z     vdW  Elec       q    Type
REMARK                         _______ _______ _______ _____ _____    ______ ____
ROOT
ATOM      1  C   UNL     1      23.982  40.796  45.935  0.00  0.00    +0.000 C 
ATOM      2  C   UNL     1      23.778  41.689  46.925  0.00  0.00    +0.000 C 
ENDROOT
BRANCH   1   8
ATOM      3  C   UNL     1      20.836  39.369  43.445  0.00  0.00    +0.000 A 
ATOM      4  C   UNL     1      21.591  38.458  44.186  0.00  0.00    +0.000 A 
ATOM      5  C   UNL     1      21.279  40.690  43.322  0.00  0.00    +0.000 A 
ATOM      6  C   UNL     1      22.698  38.907  44.924  0.00  0.00    +0.000 A 
ATOM      7  C   UNL     1      22.362  41.141  44.084  0.00  0.00    +0.000 A 
ATOM      8  C   UNL     1      23.052  40.263  44.926  0.00  0.00    +0.000 A 
BRANCH   3   9
ATOM      9  O   UNL     1      19.655  38.929  42.875  0.00  0.00    +0.000 OA
BRANCH   9  12
ATOM     10 BR   UNL     1      17.817  41.441  42.928  0.00  0.00    +0.000 Br
ATOM     11  C   UNL     1      17.651  39.811  43.884  0.00  0.00    +0.000 A 
ATOM     12  C   UNL     1      18.559  38.756  43.710  0.00  0.00    +0.000 A 
ATOM     13  C   UNL     1      16.575  39.682  44.773  0.00  0.00    +0.000 A 
ATOM     14  C   UNL     1      18.307  37.543  44.370  0.00  0.00    +0.000 A 
ATOM     15  C   UNL     1      16.380  38.490  45.474  0.00  0.00    +0.000 A 
ATOM     16  C   UNL     1      17.240  37.417  45.261  0.00  0.00    +0.000 A 
ENDBRANCH   9  12
ENDBRANCH   3   9
ENDBRANCH   1   8
BRANCH   2  17
ATOM     17  C   UNL     1      24.925  41.897  47.884  0.00  0.00    +0.000 C 
ATOM     18  O   UNL     1      26.103  41.936  47.547  0.00  0.00    +0.000 OA
ATOM     19  N   UNL     1      24.559  42.104  49.183  0.00  0.00    +0.000 N 
ATOM     20  H   UNL     1      23.609  42.069  49.438  0.00  0.00    +0.000 HD
ATOM     21  H   UNL     1      25.244  42.287  49.865  0.00  0.00    +0.000 HD
ENDBRANCH   2  17
BRANCH   2  22
ATOM     22  N   UNL     1      22.613  42.411  47.137  0.00  0.00    +0.000 N 
ATOM     23  C   UNL     1      21.414  41.778  47.405  0.00  0.00    +0.000 C 
ATOM     24  O   UNL     1      21.249  40.564  47.351  0.00  0.00    +0.000 OA
ATOM     25  H   UNL     1      22.642  43.395  47.096  0.00  0.00    +0.000 HD
BRANCH  23  26
ATOM     26  C   UNL     1      20.229  42.640  47.638  0.00  0.00    +0.000 A 
ATOM     27  C   UNL     1      19.596  43.174  46.508  0.00  0.00    +0.000 A 
ATOM     28  C   UNL     1      19.677  42.833  48.908  0.00  0.00    +0.000 A 
ATOM     29  C   UNL     1      18.399  43.871  46.636  0.00  0.00    +0.000 A 
ATOM     30  C   UNL     1      18.468  43.525  49.029  0.00  0.00    +0.000 A 
ATOM     31  C   UNL     1      17.826  44.032  47.897  0.00  0.00    +0.000 A 
ENDBRANCH  23  26
ENDBRANCH   2  22
TORSDOF 6
ENDMDL
