MODEL 1
REMARK VINA RESULT:      -2.0      0.000      0.000
REMARK  Name = 324010
REMARK  7 active torsions:
REMARK  status: ('A' for Active; 'I' for Inactive)
REMARK    1  A    between atoms: C_3  and  O_5
REMARK    2  A    between atoms: O_5  and  C_8
REMARK    3  A    between atoms: C_14  and  C_15
REMARK    4  A    between atoms: C_16  and  N_17
REMARK    5  A    between atoms: C_16  and  C_18
REMARK    6  A    between atoms: C_19  and  C_23
REMARK    7  A    between atoms: N_21  and  C_24
REMARK                            x       y       z     vdW  Elec       q    Type
REMARK                         _______ _______ _______ _____ _____    ______ ____
ROOT
ATOM      1  C   UNL     1      20.543  40.159  43.609  0.00  0.00    +0.000 C 
ATOM      2  C   UNL     1      19.410  40.862  43.800  0.00  0.00    +0.000 C 
ENDROOT
BRANCH   1   8
ATOM      3  C   UNL     1      23.856  40.194  46.238  0.00  0.00    +0.000 A 
ATOM      4  C   UNL     1      23.272  41.400  45.847  0.00  0.00    +0.000 A 
ATOM      5  C   UNL     1      23.536  39.015  45.557  0.00  0.00    +0.000 A 
ATOM      6  C   UNL     1      22.258  41.404  44.882  0.00  0.00    +0.000 A 
ATOM      7  C   UNL     1      22.511  39.016  44.608  0.00  0.00    +0.000 A 
ATOM      8  C   UNL     1      21.832  40.204  44.304  0.00  0.00    +0.000 A 
BRANCH   3   9
ATOM      9  O   UNL     1      24.725  40.228  47.309  0.00  0.00    +0.000 OA
BRANCH   9  12
ATOM     10 BR   UNL     1      27.436  41.434  48.168  0.00  0.00    +0.000 Br
ATOM     11  C   UNL     1      25.690  41.852  48.785  0.00  0.00    +0.000 A 
ATOM     12  C   UNL     1      24.554  41.222  48.260  0.00  0.00    +0.000 A 
ATOM     13  C   UNL     1      25.564  42.823  49.786  0.00  0.00    +0.000 A 
ATOM     14  C   UNL     1      23.288  41.650  48.690  0.00  0.00    +0.000 A 
ATOM     15  C   UNL     1      24.302  43.186  50.257  0.00  0.00    +0.000 A 
ATOM     16  C   UNL     1      23.164  42.609  49.698  0.00  0.00    +0.000 A 
ENDBRANCH   9  12
ENDBRANCH   3   9
ENDBRANCH   1   8
BRANCH   2  17
ATOM     17  N   UNL     1      19.217  41.729  44.863  0.00  0.00    +0.000 N 
ATOM     18  C   UNL     1      18.299  41.414  45.853  0.00  0.00    +0.000 C 
ATOM     19  O   UNL     1      17.697  40.349  45.915  0.00  0.00    +0.000 OA
ATOM     20  H   UNL     1      19.731  42.567  44.916  0.00  0.00    +0.000 HD
BRANCH  18  21
ATOM     21  C   UNL     1      18.057  42.452  46.886  0.00  0.00    +0.000 A 
ATOM     22  C   UNL     1      18.996  42.619  47.911  0.00  0.00    +0.000 A 
ATOM     23  C   UNL     1      16.989  43.350  46.764  0.00  0.00    +0.000 A 
ATOM     24  C   UNL     1      18.885  43.694  48.794  0.00  0.00    +0.000 A 
ATOM     25  C   UNL     1      16.892  44.434  47.642  0.00  0.00    +0.000 A 
ATOM     26  C   UNL     1      17.842  44.609  48.649  0.00  0.00    +0.000 A 
ENDBRANCH  18  21
ENDBRANCH   2  17
BRANCH   2  27
ATOM     27  C   UNL     1      18.285  40.550  42.812  0.00  0.00    +0.000 C 
ATOM     28  O   UNL     1      17.772  39.430  42.820  0.00  0.00    +0.000 OA
ATOM     29  N   UNL     1      17.923  41.577  41.966  0.00  0.00    +0.000 N 
ATOM     30  H   UNL     1      18.440  42.412  42.033  0.00  0.00    +0.000 HD
BRANCH  29  31
ATOM     31  C   UNL     1      16.878  41.546  41.007  0.00  0.00    +0.000 A 
ATOM     32  C   UNL     1      15.602  41.025  41.261  0.00  0.00    +0.000 A 
ATOM     33  C   UNL     1      17.139  42.066  39.737  0.00  0.00    +0.000 A 
ATOM     34  C   UNL     1      14.621  41.002  40.258  0.00  0.00    +0.000 A 
ATOM     35  C   UNL     1      16.158  42.037  38.732  0.00  0.00    +0.000 A 
ATOM     36  C   UNL     1      14.901  41.500  38.993  0.00  0.00    +0.000 A 
ENDBRANCH  29  31
ENDBRANCH   2  27
TORSDOF 7
ENDMDL
MODEL 2
REMARK VINA RESULT:      -0.9      1.328      1.805
REMARK  Name = 324010
REMARK  7 active torsions:
REMARK  status: ('A' for Active; 'I' for Inactive)
REMARK    1  A    between atoms: C_3  and  O_5
REMARK    2  A    between atoms: O_5  and  C_8
REMARK    3  A    between atoms: C_14  and  C_15
REMARK    4  A    between atoms: C_16  and  N_17
REMARK    5  A    between atoms: C_16  and  C_18
REMARK    6  A    between atoms: C_19  and  C_23
REMARK    7  A    between atoms: N_21  and  C_24
REMARK                            x       y       z     vdW  Elec       q    Type
REMARK                         _______ _______ _______ _____ _____    ______ ____
ROOT
ATOM      1  C   UNL     1      20.591  39.913  43.281  0.00  0.00    +0.000 C 
ATOM      2  C   UNL     1      19.461  40.413  43.816  0.00  0.00    +0.000 C 
ENDROOT
BRANCH   1   8
ATOM      3  C   UNL     1      24.247  39.914  45.407  0.00  0.00    +0.000 A 
ATOM      4  C   UNL     1      23.747  41.111  44.892  0.00  0.00    +0.000 A 
ATOM      5  C   UNL     1      23.700  38.697  44.989  0.00  0.00    +0.000 A 
ATOM      6  C   UNL     1      22.605  41.100  44.082  0.00  0.00    +0.000 A 
ATOM      7  C   UNL     1      22.548  38.686  44.197  0.00  0.00    +0.000 A 
ATOM      8  C   UNL     1      21.967  39.892  43.782  0.00  0.00    +0.000 A 
BRANCH   3   9
ATOM      9  O   UNL     1      25.267  39.999  46.332  0.00  0.00    +0.000 OA
BRANCH   9  12
ATOM     10 BR   UNL     1      22.654  39.519  47.907  0.00  0.00    +0.000 Br
ATOM     11  C   UNL     1      23.983  40.848  48.170  0.00  0.00    +0.000 A 
ATOM     12  C   UNL     1      25.134  40.905  47.373  0.00  0.00    +0.000 A 
ATOM     13  C   UNL     1      23.785  41.779  49.197  0.00  0.00    +0.000 A 
ATOM     14  C   UNL     1      26.124  41.850  47.685  0.00  0.00    +0.000 A 
ATOM     15  C   UNL     1      24.744  42.761  49.449  0.00  0.00    +0.000 A 
ATOM     16  C   UNL     1      25.919  42.786  48.702  0.00  0.00    +0.000 A 
ENDBRANCH   9  12
ENDBRANCH   3   9
ENDBRANCH   1   8
BRANCH   2  17
ATOM     17  N   UNL     1      19.383  40.921  45.104  0.00  0.00    +0.000 N 
ATOM     18  C   UNL     1      19.138  42.270  45.300  0.00  0.00    +0.000 C 
ATOM     19  O   UNL     1      18.878  43.058  44.398  0.00  0.00    +0.000 OA
ATOM     20  H   UNL     1      19.502  40.323  45.877  0.00  0.00    +0.000 HD
BRANCH  18  21
ATOM     21  C   UNL     1      19.199  42.758  46.701  0.00  0.00    +0.000 A 
ATOM     22  C   UNL     1      18.175  43.586  47.174  0.00  0.00    +0.000 A 
ATOM     23  C   UNL     1      20.179  42.285  47.582  0.00  0.00    +0.000 A 
ATOM     24  C   UNL     1      18.113  43.919  48.528  0.00  0.00    +0.000 A 
ATOM     25  C   UNL     1      20.103  42.609  48.940  0.00  0.00    +0.000 A 
ATOM     26  C   UNL     1      19.068  43.418  49.413  0.00  0.00    +0.000 A 
ENDBRANCH  18  21
ENDBRANCH   2  17
BRANCH   2  27
ATOM     27  C   UNL     1      18.217  40.277  42.938  0.00  0.00    +0.000 C 
ATOM     28  O   UNL     1      17.502  39.283  43.059  0.00  0.00    +0.000 OA
ATOM     29  N   UNL     1      17.987  41.311  42.053  0.00  0.00    +0.000 N 
ATOM     30  H   UNL     1      18.659  42.031  42.026  0.00  0.00    +0.000 HD
BRANCH  29  31
ATOM     31  C   UNL     1      16.878  41.436  41.178  0.00  0.00    +0.000 A 
ATOM     32  C   UNL     1      15.566  41.087  41.527  0.00  0.00    +0.000 A 
ATOM     33  C   UNL     1      17.109  41.939  39.895  0.00  0.00    +0.000 A 
ATOM     34  C   UNL     1      14.518  41.212  40.604  0.00  0.00    +0.000 A 
ATOM     35  C   UNL     1      16.060  42.058  38.970  0.00  0.00    +0.000 A 
ATOM     36  C   UNL     1      14.765  41.689  39.323  0.00  0.00    +0.000 A 
ENDBRANCH  29  31
ENDBRANCH   2  27
TORSDOF 7
ENDMDL
MODEL 3
REMARK VINA RESULT:      -0.6      3.344      8.590
REMARK  Name = 324010
REMARK  7 active torsions:
REMARK  status: ('A' for Active; 'I' for Inactive)
REMARK    1  A    between atoms: C_3  and  O_5
REMARK    2  A    between atoms: O_5  and  C_8
REMARK    3  A    between atoms: C_14  and  C_15
REMARK    4  A    between atoms: C_16  and  N_17
REMARK    5  A    between atoms: C_16  and  C_18
REMARK    6  A    between atoms: C_19  and  C_23
REMARK    7  A    between atoms: N_21  and  C_24
REMARK                            x       y       z     vdW  Elec       q    Type
REMARK                         _______ _______ _______ _____ _____    ______ ____
ROOT
ATOM      1  C   UNL     1      22.994  41.064  45.672  0.00  0.00    +0.000 C 
ATOM      2  C   UNL     1      22.745  41.892  46.704  0.00  0.00    +0.000 C 
ENDROOT
BRANCH   1   8
ATOM      3  C   UNL     1      19.909  39.289  43.386  0.00  0.00    +0.000 A 
ATOM      4  C   UNL     1      20.882  38.482  43.979  0.00  0.00    +0.000 A 
ATOM      5  C   UNL     1      20.106  40.671  43.312  0.00  0.00    +0.000 A 
ATOM      6  C   UNL     1      21.973  39.068  44.631  0.00  0.00    +0.000 A 
ATOM      7  C   UNL     1      21.186  41.258  43.979  0.00  0.00    +0.000 A 
ATOM      8  C   UNL     1      22.096  40.460  44.684  0.00  0.00    +0.000 A 
BRANCH   3   9
ATOM      9  O   UNL     1      18.774  38.667  42.909  0.00  0.00    +0.000 OA
BRANCH   9  12
ATOM     10 BR   UNL     1      16.813  40.954  43.590  0.00  0.00    +0.000 Br
ATOM     11  C   UNL     1      16.869  39.183  44.270  0.00  0.00    +0.000 A 
ATOM     12  C   UNL     1      17.819  38.254  43.825  0.00  0.00    +0.000 A 
ATOM     13  C   UNL     1      15.920  38.821  45.235  0.00  0.00    +0.000 A 
ATOM     14  C   UNL     1      17.741  36.934  44.295  0.00  0.00    +0.000 A 
ATOM     15  C   UNL     1      15.901  37.524  45.748  0.00  0.00    +0.000 A 
ATOM     16  C   UNL     1      16.802  36.577  45.267  0.00  0.00    +0.000 A 
ENDBRANCH   9  12
ENDBRANCH   3   9
ENDBRANCH   1   8
BRANCH   2  17
ATOM     17  N   UNL     1      21.506  42.465  46.945  0.00  0.00    +0.000 N 
ATOM     18  C   UNL     1      20.415  41.659  47.223  0.00  0.00    +0.000 C 
ATOM     19  O   UNL     1      20.480  40.444  47.375  0.00  0.00    +0.000 OA
ATOM     20  H   UNL     1      21.403  43.444  46.919  0.00  0.00    +0.000 HD
BRANCH  18  21
ATOM     21  C   UNL     1      19.101  42.340  47.340  0.00  0.00    +0.000 A 
ATOM     22  C   UNL     1      19.069  43.689  47.711  0.00  0.00    +0.000 A 
ATOM     23  C   UNL     1      17.922  41.695  46.948  0.00  0.00    +0.000 A 
ATOM     24  C   UNL     1      17.869  44.400  47.663  0.00  0.00    +0.000 A 
ATOM     25  C   UNL     1      16.725  42.416  46.887  0.00  0.00    +0.000 A 
ATOM     26  C   UNL     1      16.701  43.768  47.236  0.00  0.00    +0.000 A 
ENDBRANCH  18  21
ENDBRANCH   2  17
BRANCH   2  27
ATOM     27  C   UNL     1      23.969  42.259  47.545  0.00  0.00    +0.000 C 
ATOM     28  O   UNL     1      25.023  42.545  46.978  0.00  0.00    +0.000 OA
ATOM     29  N   UNL     1      23.789  42.239  48.913  0.00  0.00    +0.000 N 
ATOM     30  H   UNL     1      22.906  41.953  49.241  0.00  0.00    +0.000 HD
BRANCH  29  31
ATOM     31  C   UNL     1      24.754  42.591  49.891  0.00  0.00    +0.000 A 
ATOM     32  C   UNL     1      26.137  42.559  49.669  0.00  0.00    +0.000 A 
ATOM     33  C   UNL     1      24.295  42.994  51.148  0.00  0.00    +0.000 A 
ATOM     34  C   UNL     1      27.039  42.896  50.690  0.00  0.00    +0.000 A 
ATOM     35  C   UNL     1      25.199  43.325  52.171  0.00  0.00    +0.000 A 
ATOM     36  C   UNL     1      26.570  43.271  51.942  0.00  0.00    +0.000 A 
ENDBRANCH  29  31
ENDBRANCH   2  27
TORSDOF 7
ENDMDL
