MODEL 1
REMARK VINA RESULT:      -7.9      0.000      0.000
REMARK  Name = 322719
REMARK  8 active torsions:
REMARK  status: ('A' for Active; 'I' for Inactive)
REMARK    1  A    between atoms: C_3  and  O_5
REMARK    2  A    between atoms: O_5  and  C_8
REMARK    3  A    between atoms: C_14  and  C_15
REMARK    4  A    between atoms: CA_16  and  N_17
REMARK    5  A    between atoms: CA_16  and  C_18
REMARK    6  A    between atoms: C_19  and  C_23
REMARK    7  A    between atoms: C_23  and  O_24
REMARK    8  A    between atoms: C_23  and  C_25
REMARK                            x       y       z     vdW  Elec       q    Type
REMARK                         _______ _______ _______ _____ _____    ______ ____
ROOT
ATOM      1  C   UNL     1      19.114  42.776  46.242  0.00  0.00    +0.000 A 
ATOM      2  C   UNL     1      20.139  43.386  45.527  0.00  0.00    +0.000 A 
ATOM      3  C   UNL     1      19.405  42.195  47.482  0.00  0.00    +0.000 A 
ATOM      4  C   UNL     1      21.476  43.185  45.906  0.00  0.00    +0.000 A 
ATOM      5  C   UNL     1      20.735  42.023  47.884  0.00  0.00    +0.000 A 
ATOM      6  C   UNL     1      21.781  42.442  47.053  0.00  0.00    +0.000 A 
ENDROOT
BRANCH   6   7
ATOM      7  C   UNL     1      23.122  41.880  47.242  0.00  0.00    +0.000 C 
ATOM      8  CA  UNL     1      23.705  40.807  46.682  0.00  0.00    +0.000 C 
BRANCH   8   9
ATOM      9  N   UNL     1      23.046  39.902  45.866  0.00  0.00    +0.000 N 
ATOM     10  C   UNL     1      23.037  40.094  44.485  0.00  0.00    +0.000 C 
ATOM     11  O   UNL     1      23.755  40.901  43.905  0.00  0.00    +0.000 OA
ATOM     12  H   UNL     1      22.585  39.126  46.259  0.00  0.00    +0.000 HD
BRANCH  10  13
ATOM     13  C   UNL     1      22.045  39.159  43.776  0.00  0.00    +0.000 C 
ATOM     14  C   UNL     1      20.605  39.636  43.871  0.00  0.00    +0.000 C 
BRANCH  13  15
ATOM     15  O   UNL     1      22.180  37.855  44.340  0.00  0.00    +0.000 OA
ATOM     16  H   UNL     1      21.411  37.663  44.898  0.00  0.00    +0.000 HD
ENDBRANCH  13  15
ENDBRANCH  10  13
ENDBRANCH   8   9
BRANCH   8  17
ATOM     17  C   UNL     1      25.165  40.606  47.018  0.00  0.00    +0.000 C 
ATOM     18  O   UNL     1      25.997  40.173  46.251  0.00  0.00    +0.000 OA
ATOM     19  OXT UNL     1      25.471  41.023  48.270  0.00  0.00    +0.000 OA
ENDBRANCH   8  17
ENDBRANCH   6   7
BRANCH   1  20
ATOM     20  O   UNL     1      17.808  42.677  45.831  0.00  0.00    +0.000 OA
BRANCH  20  23
ATOM     21  I   UNL     1      16.535  39.421  46.799  0.00  0.00    +0.000 I 
ATOM     22  C   UNL     1      16.940  40.451  45.002  0.00  0.00    +0.000 A 
ATOM     23  C   UNL     1      17.379  41.779  44.872  0.00  0.00    +0.000 A 
ATOM     24  C   UNL     1      16.571  39.723  43.854  0.00  0.00    +0.000 A 
ATOM     25  C   UNL     1      17.277  42.384  43.603  0.00  0.00    +0.000 A 
ATOM     26  C   UNL     1      16.493  40.339  42.606  0.00  0.00    +0.000 A 
ATOM     27  C   UNL     1      16.813  41.682  42.485  0.00  0.00    +0.000 A 
ENDBRANCH  20  23
ENDBRANCH   1  20
TORSDOF 7
ENDMDL
MODEL 2
REMARK VINA RESULT:      -7.8      3.332      7.241
REMARK  Name = 322719
REMARK  8 active torsions:
REMARK  status: ('A' for Active; 'I' for Inactive)
REMARK    1  A    between atoms: C_3  and  O_5
REMARK    2  A    between atoms: O_5  and  C_8
REMARK    3  A    between atoms: C_14  and  C_15
REMARK    4  A    between atoms: CA_16  and  N_17
REMARK    5  A    between atoms: CA_16  and  C_18
REMARK    6  A    between atoms: C_19  and  C_23
REMARK    7  A    between atoms: C_23  and  O_24
REMARK    8  A    between atoms: C_23  and  C_25
REMARK                            x       y       z     vdW  Elec       q    Type
REMARK                         _______ _______ _______ _____ _____    ______ ____
ROOT
ATOM      1  C   UNL     1      21.917  41.349  47.005  0.00  0.00    +0.000 A 
ATOM      2  C   UNL     1      21.293  42.547  46.679  0.00  0.00    +0.000 A 
ATOM      3  C   UNL     1      21.994  40.339  46.038  0.00  0.00    +0.000 A 
ATOM      4  C   UNL     1      20.521  42.642  45.510  0.00  0.00    +0.000 A 
ATOM      5  C   UNL     1      21.256  40.442  44.854  0.00  0.00    +0.000 A 
ATOM      6  C   UNL     1      20.446  41.560  44.625  0.00  0.00    +0.000 A 
ENDROOT
BRANCH   6   7
ATOM      7  C   UNL     1      19.359  41.475  43.643  0.00  0.00    +0.000 C 
ATOM      8  CA  UNL     1      18.147  40.903  43.732  0.00  0.00    +0.000 C 
BRANCH   8   9
ATOM      9  N   UNL     1      17.730  40.125  44.800  0.00  0.00    +0.000 N 
ATOM     10  C   UNL     1      17.931  38.745  44.771  0.00  0.00    +0.000 C 
ATOM     11  O   UNL     1      18.648  38.179  43.955  0.00  0.00    +0.000 OA
ATOM     12  H   UNL     1      17.293  40.544  45.575  0.00  0.00    +0.000 HD
BRANCH  10  13
ATOM     13  C   UNL     1      17.174  38.026  45.898  0.00  0.00    +0.000 C 
ATOM     14  C   UNL     1      16.839  36.582  45.562  0.00  0.00    +0.000 C 
BRANCH  13  15
ATOM     15  O   UNL     1      15.986  38.764  46.180  0.00  0.00    +0.000 OA
ATOM     16  H   UNL     1      15.865  38.827  47.140  0.00  0.00    +0.000 HD
ENDBRANCH  13  15
ENDBRANCH  10  13
ENDBRANCH   8   9
BRANCH   8  17
ATOM     17  C   UNL     1      17.227  41.134  42.554  0.00  0.00    +0.000 C 
ATOM     18  O   UNL     1      16.178  40.557  42.373  0.00  0.00    +0.000 OA
ATOM     19  OXT UNL     1      17.674  42.115  41.732  0.00  0.00    +0.000 OA
ENDBRANCH   8  17
ENDBRANCH   6   7
BRANCH   1  20
ATOM     20  O   UNL     1      22.473  41.048  48.224  0.00  0.00    +0.000 OA
BRANCH  20  23
ATOM     21  I   UNL     1      25.541  40.609  46.338  0.00  0.00    +0.000 I 
ATOM     22  C   UNL     1      24.964  41.486  48.168  0.00  0.00    +0.000 A 
ATOM     23  C   UNL     1      23.658  41.599  48.675  0.00  0.00    +0.000 A 
ATOM     24  C   UNL     1      26.026  42.134  48.829  0.00  0.00    +0.000 A 
ATOM     25  C   UNL     1      23.441  42.496  49.740  0.00  0.00    +0.000 A 
ATOM     26  C   UNL     1      25.789  43.005  49.890  0.00  0.00    +0.000 A 
ATOM     27  C   UNL     1      24.490  43.214  50.326  0.00  0.00    +0.000 A 
ENDBRANCH  20  23
ENDBRANCH   1  20
TORSDOF 7
ENDMDL
MODEL 3
REMARK VINA RESULT:      -7.7      2.025      2.575
REMARK  Name = 322719
REMARK  8 active torsions:
REMARK  status: ('A' for Active; 'I' for Inactive)
REMARK    1  A    between atoms: C_3  and  O_5
REMARK    2  A    between atoms: O_5  and  C_8
REMARK    3  A    between atoms: C_14  and  C_15
REMARK    4  A    between atoms: CA_16  and  N_17
REMARK    5  A    between atoms: CA_16  and  C_18
REMARK    6  A    between atoms: C_19  and  C_23
REMARK    7  A    between atoms: C_23  and  O_24
REMARK    8  A    between atoms: C_23  and  C_25
REMARK                            x       y       z     vdW  Elec       q    Type
REMARK                         _______ _______ _______ _____ _____    ______ ____
ROOT
ATOM      1  C   UNL     1      18.789  42.159  46.024  0.00  0.00    +0.000 A 
ATOM      2  C   UNL     1      19.938  42.510  45.324  0.00  0.00    +0.000 A 
ATOM      3  C   UNL     1      18.776  42.292  47.418  0.00  0.00    +0.000 A 
ATOM      4  C   UNL     1      21.141  42.730  46.014  0.00  0.00    +0.000 A 
ATOM      5  C   UNL     1      19.966  42.547  48.110  0.00  0.00    +0.000 A 
ATOM      6  C   UNL     1      21.172  42.681  47.413  0.00  0.00    +0.000 A 
ENDROOT
BRANCH   6   7
ATOM      7  C   UNL     1      22.441  42.499  48.125  0.00  0.00    +0.000 C 
ATOM      8  CA  UNL     1      23.528  41.778  47.800  0.00  0.00    +0.000 C 
BRANCH   8   9
ATOM      9  N   UNL     1      23.593  40.914  46.718  0.00  0.00    +0.000 N 
ATOM     10  C   UNL     1      23.640  39.537  46.934  0.00  0.00    +0.000 C 
ATOM     11  O   UNL     1      23.415  39.009  48.016  0.00  0.00    +0.000 OA
ATOM     12  H   UNL     1      23.606  41.271  45.801  0.00  0.00    +0.000 HD
BRANCH  10  13
ATOM     13  C   UNL     1      23.979  38.762  45.651  0.00  0.00    +0.000 C 
ATOM     14  C   UNL     1      23.163  39.212  44.451  0.00  0.00    +0.000 C 
BRANCH  13  15
ATOM     15  O   UNL     1      23.776  37.372  45.904  0.00  0.00    +0.000 OA
ATOM     16  H   UNL     1      24.635  36.932  46.001  0.00  0.00    +0.000 HD
ENDBRANCH  13  15
ENDBRANCH  10  13
ENDBRANCH   8   9
BRANCH   8  17
ATOM     17  C   UNL     1      24.717  41.937  48.719  0.00  0.00    +0.000 C 
ATOM     18  O   UNL     1      25.860  41.668  48.423  0.00  0.00    +0.000 OA
ATOM     19  OXT UNL     1      24.378  42.478  49.915  0.00  0.00    +0.000 OA
ENDBRANCH   8  17
ENDBRANCH   6   7
BRANCH   1  20
ATOM     20  O   UNL     1      17.635  41.670  45.463  0.00  0.00    +0.000 OA
BRANCH  20  23
ATOM     21  I   UNL     1      19.448  39.152  43.582  0.00  0.00    +0.000 I 
ATOM     22  C   UNL     1      17.750  39.223  44.833  0.00  0.00    +0.000 A 
ATOM     23  C   UNL     1      17.262  40.341  45.531  0.00  0.00    +0.000 A 
ATOM     24  C   UNL     1      17.182  37.955  45.065  0.00  0.00    +0.000 A 
ATOM     25  C   UNL     1      16.326  40.117  46.560  0.00  0.00    +0.000 A 
ATOM     26  C   UNL     1      16.245  37.760  46.078  0.00  0.00    +0.000 A 
ATOM     27  C   UNL     1      15.841  38.837  46.851  0.00  0.00    +0.000 A 
ENDBRANCH  20  23
ENDBRANCH   1  20
TORSDOF 7
ENDMDL
MODEL 4
REMARK VINA RESULT:      -7.2      3.186      7.332
REMARK  Name = 322719
REMARK  8 active torsions:
REMARK  status: ('A' for Active; 'I' for Inactive)
REMARK    1  A    between atoms: C_3  and  O_5
REMARK    2  A    between atoms: O_5  and  C_8
REMARK    3  A    between atoms: C_14  and  C_15
REMARK    4  A    between atoms: CA_16  and  N_17
REMARK    5  A    between atoms: CA_16  and  C_18
REMARK    6  A    between atoms: C_19  and  C_23
REMARK    7  A    between atoms: C_23  and  O_24
REMARK    8  A    between atoms: C_23  and  C_25
REMARK                            x       y       z     vdW  Elec       q    Type
REMARK                         _______ _______ _______ _____ _____    ______ ____
ROOT
ATOM      1  C   UNL     1      21.841  41.405  46.883  0.00  0.00    +0.000 A 
ATOM      2  C   UNL     1      21.412  42.636  46.400  0.00  0.00    +0.000 A 
ATOM      3  C   UNL     1      21.780  40.287  46.041  0.00  0.00    +0.000 A 
ATOM      4  C   UNL     1      20.684  42.705  45.202  0.00  0.00    +0.000 A 
ATOM      5  C   UNL     1      21.085  40.358  44.828  0.00  0.00    +0.000 A 
ATOM      6  C   UNL     1      20.459  41.550  44.444  0.00  0.00    +0.000 A 
ENDROOT
BRANCH   6   7
ATOM      7  C   UNL     1      19.389  41.511  43.442  0.00  0.00    +0.000 C 
ATOM      8  CA  UNL     1      18.123  41.070  43.534  0.00  0.00    +0.000 C 
BRANCH   8   9
ATOM      9  N   UNL     1      17.610  40.405  44.636  0.00  0.00    +0.000 N 
ATOM     10  C   UNL     1      16.933  41.121  45.623  0.00  0.00    +0.000 C 
ATOM     11  O   UNL     1      16.566  42.282  45.491  0.00  0.00    +0.000 OA
ATOM     12  H   UNL     1      17.723  39.432  44.722  0.00  0.00    +0.000 HD
BRANCH  10  13
ATOM     13  C   UNL     1      16.677  40.274  46.880  0.00  0.00    +0.000 C 
ATOM     14  C   UNL     1      17.956  39.862  47.590  0.00  0.00    +0.000 C 
BRANCH  13  15
ATOM     15  O   UNL     1      15.922  39.125  46.498  0.00  0.00    +0.000 OA
ATOM     16  H   UNL     1      15.574  39.251  45.602  0.00  0.00    +0.000 HD
ENDBRANCH  13  15
ENDBRANCH  10  13
ENDBRANCH   8   9
BRANCH   8  17
ATOM     17  C   UNL     1      17.255  41.317  42.321  0.00  0.00    +0.000 C 
ATOM     18  O   UNL     1      17.528  42.078  41.419  0.00  0.00    +0.000 OA
ATOM     19  OXT UNL     1      16.143  40.541  42.313  0.00  0.00    +0.000 OA
ENDBRANCH   8  17
ENDBRANCH   6   7
BRANCH   1  20
ATOM     20  O   UNL     1      22.324  41.171  48.147  0.00  0.00    +0.000 OA
BRANCH  20  23
ATOM     21  I   UNL     1      25.387  40.493  46.324  0.00  0.00    +0.000 I 
ATOM     22  C   UNL     1      24.837  41.458  48.119  0.00  0.00    +0.000 A 
ATOM     23  C   UNL     1      23.534  41.664  48.601  0.00  0.00    +0.000 A 
ATOM     24  C   UNL     1      25.927  42.061  48.777  0.00  0.00    +0.000 A 
ATOM     25  C   UNL     1      23.355  42.604  49.635  0.00  0.00    +0.000 A 
ATOM     26  C   UNL     1      25.727  42.977  49.809  0.00  0.00    +0.000 A 
ATOM     27  C   UNL     1      24.437  43.276  50.216  0.00  0.00    +0.000 A 
ENDBRANCH  20  23
ENDBRANCH   1  20
TORSDOF 7
ENDMDL
MODEL 5
REMARK VINA RESULT:      -6.9      2.001      3.687
REMARK  Name = 322719
REMARK  8 active torsions:
REMARK  status: ('A' for Active; 'I' for Inactive)
REMARK    1  A    between atoms: C_3  and  O_5
REMARK    2  A    between atoms: O_5  and  C_8
REMARK    3  A    between atoms: C_14  and  C_15
REMARK    4  A    between atoms: CA_16  and  N_17
REMARK    5  A    between atoms: CA_16  and  C_18
REMARK    6  A    between atoms: C_19  and  C_23
REMARK    7  A    between atoms: C_23  and  O_24
REMARK    8  A    between atoms: C_23  and  C_25
REMARK                            x       y       z     vdW  Elec       q    Type
REMARK                         _______ _______ _______ _____ _____    ______ ____
ROOT
ATOM      1  C   UNL     1      19.359  40.405  43.621  0.00  0.00    +0.000 A 
ATOM      2  C   UNL     1      20.103  39.258  43.367  0.00  0.00    +0.000 A 
ATOM      3  C   UNL     1      20.028  41.624  43.793  0.00  0.00    +0.000 A 
ATOM      4  C   UNL     1      21.495  39.269  43.549  0.00  0.00    +0.000 A 
ATOM      5  C   UNL     1      21.420  41.647  43.940  0.00  0.00    +0.000 A 
ATOM      6  C   UNL     1      22.151  40.454  43.905  0.00  0.00    +0.000 A 
ENDROOT
BRANCH   6   7
ATOM      7  C   UNL     1      23.496  40.415  44.490  0.00  0.00    +0.000 C 
ATOM      8  CA  UNL     1      23.941  40.846  45.682  0.00  0.00    +0.000 C 
BRANCH   8   9
ATOM      9  N   UNL     1      23.177  41.573  46.580  0.00  0.00    +0.000 N 
ATOM     10  C   UNL     1      22.456  40.910  47.572  0.00  0.00    +0.000 C 
ATOM     11  O   UNL     1      22.610  39.726  47.850  0.00  0.00    +0.000 OA
ATOM     12  H   UNL     1      23.143  42.555  46.518  0.00  0.00    +0.000 HD
BRANCH  10  13
ATOM     13  C   UNL     1      21.469  41.842  48.293  0.00  0.00    +0.000 C 
ATOM     14  C   UNL     1      20.534  42.569  47.340  0.00  0.00    +0.000 C 
BRANCH  13  15
ATOM     15  O   UNL     1      22.222  42.775  49.067  0.00  0.00    +0.000 OA
ATOM     16  H   UNL     1      22.590  43.456  48.484  0.00  0.00    +0.000 HD
ENDBRANCH  13  15
ENDBRANCH  10  13
ENDBRANCH   8   9
BRANCH   8  17
ATOM     17  C   UNL     1      25.380  40.511  46.002  0.00  0.00    +0.000 C 
ATOM     18  O   UNL     1      25.958  39.514  45.628  0.00  0.00    +0.000 OA
ATOM     19  OXT UNL     1      25.992  41.487  46.716  0.00  0.00    +0.000 OA
ENDBRANCH   8  17
ENDBRANCH   6   7
BRANCH   1  20
ATOM     20  O   UNL     1      17.992  40.457  43.733  0.00  0.00    +0.000 OA
BRANCH  20  23
ATOM     21  I   UNL     1      16.967  42.926  46.187  0.00  0.00    +0.000 I 
ATOM     22  C   UNL     1      16.897  40.827  45.984  0.00  0.00    +0.000 A 
ATOM     23  C   UNL     1      17.308  40.072  44.872  0.00  0.00    +0.000 A 
ATOM     24  C   UNL     1      16.224  40.192  47.046  0.00  0.00    +0.000 A 
ATOM     25  C   UNL     1      16.883  38.731  44.793  0.00  0.00    +0.000 A 
ATOM     26  C   UNL     1      15.827  38.859  46.952  0.00  0.00    +0.000 A 
ATOM     27  C   UNL     1      16.126  38.136  45.809  0.00  0.00    +0.000 A 
ENDBRANCH  20  23
ENDBRANCH   1  20
TORSDOF 7
ENDMDL
MODEL 6
REMARK VINA RESULT:      -6.8      3.245      7.115
REMARK  Name = 322719
REMARK  8 active torsions:
REMARK  status: ('A' for Active; 'I' for Inactive)
REMARK    1  A    between atoms: C_3  and  O_5
REMARK    2  A    between atoms: O_5  and  C_8
REMARK    3  A    between atoms: C_14  and  C_15
REMARK    4  A    between atoms: CA_16  and  N_17
REMARK    5  A    between atoms: CA_16  and  C_18
REMARK    6  A    between atoms: C_19  and  C_23
REMARK    7  A    between atoms: C_23  and  O_24
REMARK    8  A    between atoms: C_23  and  C_25
REMARK                            x       y       z     vdW  Elec       q    Type
REMARK                         _______ _______ _______ _____ _____    ______ ____
ROOT
ATOM      1  C   UNL     1      21.270  41.544  47.176  0.00  0.00    +0.000 A 
ATOM      2  C   UNL     1      19.897  41.538  47.395  0.00  0.00    +0.000 A 
ATOM      3  C   UNL     1      21.757  41.978  45.937  0.00  0.00    +0.000 A 
ATOM      4  C   UNL     1      19.013  41.698  46.316  0.00  0.00    +0.000 A 
ATOM      5  C   UNL     1      20.878  42.174  44.865  0.00  0.00    +0.000 A 
ATOM      6  C   UNL     1      19.507  41.950  45.030  0.00  0.00    +0.000 A 
ENDROOT
BRANCH   6   7
ATOM      7  C   UNL     1      18.667  41.717  43.851  0.00  0.00    +0.000 C 
ATOM      8  CA  UNL     1      17.530  41.014  43.714  0.00  0.00    +0.000 C 
BRANCH   8   9
ATOM      9  N   UNL     1      16.983  40.220  44.709  0.00  0.00    +0.000 N 
ATOM     10  C   UNL     1      17.313  38.867  44.776  0.00  0.00    +0.000 C 
ATOM     11  O   UNL     1      18.229  38.358  44.140  0.00  0.00    +0.000 OA
ATOM     12  H   UNL     1      16.362  40.609  45.366  0.00  0.00    +0.000 HD
BRANCH  10  13
ATOM     13  C   UNL     1      16.417  38.099  45.759  0.00  0.00    +0.000 C 
ATOM     14  C   UNL     1      16.082  38.898  47.008  0.00  0.00    +0.000 C 
BRANCH  13  15
ATOM     15  O   UNL     1      17.074  36.880  46.104  0.00  0.00    +0.000 OA
ATOM     16  H   UNL     1      16.540  36.398  46.753  0.00  0.00    +0.000 HD
ENDBRANCH  13  15
ENDBRANCH  10  13
ENDBRANCH   8   9
BRANCH   8  17
ATOM     17  C   UNL     1      16.860  41.109  42.362  0.00  0.00    +0.000 C 
ATOM     18  O   UNL     1      15.862  40.502  42.041  0.00  0.00    +0.000 OA
ATOM     19  OXT UNL     1      17.466  42.005  41.546  0.00  0.00    +0.000 OA
ENDBRANCH   8  17
ENDBRANCH   6   7
BRANCH   1  20
ATOM     20  O   UNL     1      22.221  41.145  48.082  0.00  0.00    +0.000 OA
BRANCH  20  23
ATOM     21  I   UNL     1      24.393  42.948  50.360  0.00  0.00    +0.000 I 
ATOM     22  C   UNL     1      24.585  41.930  48.522  0.00  0.00    +0.000 A 
ATOM     23  C   UNL     1      23.580  41.223  47.841  0.00  0.00    +0.000 A 
ATOM     24  C   UNL     1      25.915  41.867  48.062  0.00  0.00    +0.000 A 
ATOM     25  C   UNL     1      23.976  40.345  46.812  0.00  0.00    +0.000 A 
ATOM     26  C   UNL     1      26.281  41.002  47.032  0.00  0.00    +0.000 A 
ATOM     27  C   UNL     1      25.315  40.213  46.428  0.00  0.00    +0.000 A 
ENDBRANCH  20  23
ENDBRANCH   1  20
TORSDOF 7
ENDMDL
MODEL 7
REMARK VINA RESULT:      -6.7      1.607      1.936
REMARK  Name = 322719
REMARK  8 active torsions:
REMARK  status: ('A' for Active; 'I' for Inactive)
REMARK    1  A    between atoms: C_3  and  O_5
REMARK    2  A    between atoms: O_5  and  C_8
REMARK    3  A    between atoms: C_14  and  C_15
REMARK    4  A    between atoms: CA_16  and  N_17
REMARK    5  A    between atoms: CA_16  and  C_18
REMARK    6  A    between atoms: C_19  and  C_23
REMARK    7  A    between atoms: C_23  and  O_24
REMARK    8  A    between atoms: C_23  and  C_25
REMARK                            x       y       z     vdW  Elec       q    Type
REMARK                         _______ _______ _______ _____ _____    ______ ____
ROOT
ATOM      1  C   UNL     1      18.779  42.235  46.942  0.00  0.00    +0.000 A 
ATOM      2  C   UNL     1      19.065  42.885  48.138  0.00  0.00    +0.000 A 
ATOM      3  C   UNL     1      19.685  41.286  46.453  0.00  0.00    +0.000 A 
ATOM      4  C   UNL     1      20.351  42.796  48.696  0.00  0.00    +0.000 A 
ATOM      5  C   UNL     1      20.956  41.166  47.026  0.00  0.00    +0.000 A 
ATOM      6  C   UNL     1      21.324  41.985  48.100  0.00  0.00    +0.000 A 
ENDROOT
BRANCH   6   7
ATOM      7  C   UNL     1      22.746  42.184  48.402  0.00  0.00    +0.000 C 
ATOM      8  CA  UNL     1      23.843  41.754  47.755  0.00  0.00    +0.000 C 
BRANCH   8   9
ATOM      9  N   UNL     1      23.821  40.876  46.685  0.00  0.00    +0.000 N 
ATOM     10  C   UNL     1      23.810  39.501  46.917  0.00  0.00    +0.000 C 
ATOM     11  O   UNL     1      23.603  38.998  48.015  0.00  0.00    +0.000 OA
ATOM     12  H   UNL     1      23.813  41.220  45.763  0.00  0.00    +0.000 HD
BRANCH  10  13
ATOM     13  C   UNL     1      24.056  38.694  45.633  0.00  0.00    +0.000 C 
ATOM     14  C   UNL     1      23.109  39.067  44.505  0.00  0.00    +0.000 C 
BRANCH  13  15
ATOM     15  O   UNL     1      23.939  37.307  45.948  0.00  0.00    +0.000 OA
ATOM     16  H   UNL     1      24.611  37.067  46.605  0.00  0.00    +0.000 HD
ENDBRANCH  13  15
ENDBRANCH  10  13
ENDBRANCH   8   9
BRANCH   8  17
ATOM     17  C   UNL     1      25.160  42.273  48.287  0.00  0.00    +0.000 C 
ATOM     18  O   UNL     1      26.199  42.287  47.664  0.00  0.00    +0.000 OA
ATOM     19  OXT UNL     1      25.048  42.787  49.536  0.00  0.00    +0.000 OA
ENDBRANCH   8  17
ENDBRANCH   6   7
BRANCH   1  20
ATOM     20  O   UNL     1      17.666  42.448  46.168  0.00  0.00    +0.000 OA
BRANCH  20  23
ATOM     21  I   UNL     1      16.353  39.103  46.671  0.00  0.00    +0.000 I 
ATOM     22  C   UNL     1      16.897  40.322  45.036  0.00  0.00    +0.000 A 
ATOM     23  C   UNL     1      17.330  41.657  45.086  0.00  0.00    +0.000 A 
ATOM     24  C   UNL     1      16.635  39.720  43.788  0.00  0.00    +0.000 A 
ATOM     25  C   UNL     1      17.329  42.395  43.885  0.00  0.00    +0.000 A 
ATOM     26  C   UNL     1      16.655  40.466  42.612  0.00  0.00    +0.000 A 
ATOM     27  C   UNL     1      16.969  41.815  42.663  0.00  0.00    +0.000 A 
ENDBRANCH  20  23
ENDBRANCH   1  20
TORSDOF 7
ENDMDL
MODEL 8
REMARK VINA RESULT:      -6.6      2.122      2.732
REMARK  Name = 322719
REMARK  8 active torsions:
REMARK  status: ('A' for Active; 'I' for Inactive)
REMARK    1  A    between atoms: C_3  and  O_5
REMARK    2  A    between atoms: O_5  and  C_8
REMARK    3  A    between atoms: C_14  and  C_15
REMARK    4  A    between atoms: CA_16  and  N_17
REMARK    5  A    between atoms: CA_16  and  C_18
REMARK    6  A    between atoms: C_19  and  C_23
REMARK    7  A    between atoms: C_23  and  O_24
REMARK    8  A    between atoms: C_23  and  C_25
REMARK                            x       y       z     vdW  Elec       q    Type
REMARK                         _______ _______ _______ _____ _____    ______ ____
ROOT
ATOM      1  C   UNL     1      20.139  41.080  45.512  0.00  0.00    +0.000 A 
ATOM      2  C   UNL     1      20.971  42.077  45.015  0.00  0.00    +0.000 A 
ATOM      3  C   UNL     1      20.199  40.764  46.875  0.00  0.00    +0.000 A 
ATOM      4  C   UNL     1      22.032  42.561  45.796  0.00  0.00    +0.000 A 
ATOM      5  C   UNL     1      21.234  41.271  47.669  0.00  0.00    +0.000 A 
ATOM      6  C   UNL     1      22.207  42.106  47.109  0.00  0.00    +0.000 A 
ENDROOT
BRANCH   6   7
ATOM      7  C   UNL     1      23.497  42.268  47.788  0.00  0.00    +0.000 C 
ATOM      8  CA  UNL     1      24.504  41.396  47.968  0.00  0.00    +0.000 C 
BRANCH   8   9
ATOM      9  N   UNL     1      24.439  40.054  47.631  0.00  0.00    +0.000 N 
ATOM     10  C   UNL     1      24.463  39.675  46.289  0.00  0.00    +0.000 C 
ATOM     11  O   UNL     1      24.752  40.434  45.372  0.00  0.00    +0.000 OA
ATOM     12  H   UNL     1      24.375  39.370  48.336  0.00  0.00    +0.000 HD
BRANCH  10  13
ATOM     13  C   UNL     1      24.113  38.190  46.100  0.00  0.00    +0.000 C 
ATOM     14  C   UNL     1      25.319  37.336  45.744  0.00  0.00    +0.000 C 
BRANCH  13  15
ATOM     15  O   UNL     1      23.112  38.093  45.088  0.00  0.00    +0.000 OA
ATOM     16  H   UNL     1      23.369  38.636  44.327  0.00  0.00    +0.000 HD
ENDBRANCH  13  15
ENDBRANCH  10  13
ENDBRANCH   8   9
BRANCH   8  17
ATOM     17  C   UNL     1      25.753  41.962  48.605  0.00  0.00    +0.000 C 
ATOM     18  O   UNL     1      25.766  42.845  49.434  0.00  0.00    +0.000 OA
ATOM     19  OXT UNL     1      26.877  41.328  48.193  0.00  0.00    +0.000 OA
ENDBRANCH   8  17
ENDBRANCH   6   7
BRANCH   1  20
ATOM     20  O   UNL     1      19.246  40.347  44.771  0.00  0.00    +0.000 OA
BRANCH  20  23
ATOM     21  I   UNL     1      16.753  42.367  46.465  0.00  0.00    +0.000 I 
ATOM     22  C   UNL     1      17.077  40.319  46.072  0.00  0.00    +0.000 A 
ATOM     23  C   UNL     1      18.115  39.761  45.308  0.00  0.00    +0.000 A 
ATOM     24  C   UNL     1      16.028  39.497  46.529  0.00  0.00    +0.000 A 
ATOM     25  C   UNL     1      17.977  38.422  44.890  0.00  0.00    +0.000 A 
ATOM     26  C   UNL     1      15.920  38.171  46.115  0.00  0.00    +0.000 A 
ATOM     27  C   UNL     1      16.878  37.641  45.266  0.00  0.00    +0.000 A 
ENDBRANCH  20  23
ENDBRANCH   1  20
TORSDOF 7
ENDMDL
MODEL 9
REMARK VINA RESULT:      -5.3      2.275      7.181
REMARK  Name = 322719
REMARK  8 active torsions:
REMARK  status: ('A' for Active; 'I' for Inactive)
REMARK    1  A    between atoms: C_3  and  O_5
REMARK    2  A    between atoms: O_5  and  C_8
REMARK    3  A    between atoms: C_14  and  C_15
REMARK    4  A    between atoms: CA_16  and  N_17
REMARK    5  A    between atoms: CA_16  and  C_18
REMARK    6  A    between atoms: C_19  and  C_23
REMARK    7  A    between atoms: C_23  and  O_24
REMARK    8  A    between atoms: C_23  and  C_25
REMARK                            x       y       z     vdW  Elec       q    Type
REMARK                         _______ _______ _______ _____ _____    ______ ____
ROOT
ATOM      1  C   UNL     1      23.448  40.302  44.720  0.00  0.00    +0.000 A 
ATOM      2  C   UNL     1      22.640  41.318  44.222  0.00  0.00    +0.000 A 
ATOM      3  C   UNL     1      23.048  38.971  44.547  0.00  0.00    +0.000 A 
ATOM      4  C   UNL     1      21.331  41.032  43.801  0.00  0.00    +0.000 A 
ATOM      5  C   UNL     1      21.757  38.678  44.095  0.00  0.00    +0.000 A 
ATOM      6  C   UNL     1      20.862  39.713  43.802  0.00  0.00    +0.000 A 
ENDROOT
BRANCH   6   7
ATOM      7  C   UNL     1      19.422  39.435  43.769  0.00  0.00    +0.000 C 
ATOM      8  CA  UNL     1      18.417  39.952  44.495  0.00  0.00    +0.000 C 
BRANCH   8   9
ATOM      9  N   UNL     1      18.594  40.807  45.570  0.00  0.00    +0.000 N 
ATOM     10  C   UNL     1      18.367  42.174  45.413  0.00  0.00    +0.000 C 
ATOM     11  O   UNL     1      17.810  42.663  44.437  0.00  0.00    +0.000 OA
ATOM     12  H   UNL     1      18.880  40.451  46.442  0.00  0.00    +0.000 HD
BRANCH  10  13
ATOM     13  C   UNL     1      18.868  42.987  46.617  0.00  0.00    +0.000 C 
ATOM     14  C   UNL     1      17.773  43.808  47.277  0.00  0.00    +0.000 C 
BRANCH  13  15
ATOM     15  O   UNL     1      19.931  43.831  46.174  0.00  0.00    +0.000 OA
ATOM     16  H   UNL     1      20.296  44.313  46.931  0.00  0.00    +0.000 HD
ENDBRANCH  13  15
ENDBRANCH  10  13
ENDBRANCH   8   9
BRANCH   8  17
ATOM     17  C   UNL     1      17.026  39.520  44.087  0.00  0.00    +0.000 C 
ATOM     18  O   UNL     1      16.299  38.815  44.751  0.00  0.00    +0.000 OA
ATOM     19  OXT UNL     1      16.642  40.060  42.904  0.00  0.00    +0.000 OA
ENDBRANCH   8  17
ENDBRANCH   6   7
BRANCH   1  20
ATOM     20  O   UNL     1      24.629  40.486  45.395  0.00  0.00    +0.000 OA
BRANCH  20  23
ATOM     21  I   UNL     1      21.704  40.713  47.529  0.00  0.00    +0.000 I 
ATOM     22  C   UNL     1      23.707  41.376  47.575  0.00  0.00    +0.000 A 
ATOM     23  C   UNL     1      24.711  41.096  46.632  0.00  0.00    +0.000 A 
ATOM     24  C   UNL     1      24.042  42.038  48.773  0.00  0.00    +0.000 A 
ATOM     25  C   UNL     1      26.048  41.347  47.001  0.00  0.00    +0.000 A 
ATOM     26  C   UNL     1      25.371  42.290  49.109  0.00  0.00    +0.000 A 
ATOM     27  C   UNL     1      26.379  41.913  48.237  0.00  0.00    +0.000 A 
ENDBRANCH  20  23
ENDBRANCH   1  20
TORSDOF 7
ENDMDL
