MODEL 1
REMARK VINA RESULT:      -6.7      0.000      0.000
REMARK  Name = 319953
REMARK  6 active torsions:
REMARK  status: ('A' for Active; 'I' for Inactive)
REMARK    1  A    between atoms: C_3  and  O_5
REMARK    2  A    between atoms: O_5  and  C_8
REMARK    3  A    between atoms: C_14  and  C_15
REMARK    4  A    between atoms: CA_16  and  N_17
REMARK    5  A    between atoms: CA_16  and  C_18
REMARK    6  A    between atoms: C_19  and  C_23
REMARK                            x       y       z     vdW  Elec       q    Type
REMARK                         _______ _______ _______ _____ _____    ______ ____
ROOT
ATOM      1  C   UNL     1      18.803  43.426  45.199  0.00  0.00    +0.000 C 
ATOM      2  CA  UNL     1      17.877  42.628  44.639  0.00  0.00    +0.000 C 
ENDROOT
BRANCH   1   8
ATOM      3  C   UNL     1      21.982  41.824  47.505  0.00  0.00    +0.000 A 
ATOM      4  C   UNL     1      20.716  41.933  48.077  0.00  0.00    +0.000 A 
ATOM      5  C   UNL     1      22.259  42.475  46.299  0.00  0.00    +0.000 A 
ATOM      6  C   UNL     1      19.683  42.556  47.365  0.00  0.00    +0.000 A 
ATOM      7  C   UNL     1      21.224  43.076  45.579  0.00  0.00    +0.000 A 
ATOM      8  C   UNL     1      19.918  43.075  46.087  0.00  0.00    +0.000 A 
BRANCH   3   9
ATOM      9  O   UNL     1      22.913  41.037  48.151  0.00  0.00    +0.000 OA
BRANCH   9  12
ATOM     10 BR   UNL     1      25.507  40.585  46.530  0.00  0.00    +0.000 Br
ATOM     11  C   UNL     1      25.261  41.535  48.153  0.00  0.00    +0.000 A 
ATOM     12  C   UNL     1      23.996  41.674  48.740  0.00  0.00    +0.000 A 
ATOM     13  C   UNL     1      26.387  42.104  48.760  0.00  0.00    +0.000 A 
ATOM     14  C   UNL     1      23.868  42.472  49.888  0.00  0.00    +0.000 A 
ATOM     15  C   UNL     1      26.255  42.830  49.944  0.00  0.00    +0.000 A 
ATOM     16  C   UNL     1      24.994  43.026  50.501  0.00  0.00    +0.000 A 
ENDBRANCH   9  12
ENDBRANCH   3   9
ENDBRANCH   1   8
BRANCH   2  17
ATOM     17  N   UNL     1      17.883  41.241  44.653  0.00  0.00    +0.000 N 
ATOM     18  C   UNL     1      17.123  40.530  45.573  0.00  0.00    +0.000 C 
ATOM     19  O   UNL     1      16.522  41.058  46.505  0.00  0.00    +0.000 OA
ATOM     20  H   UNL     1      18.436  40.752  44.000  0.00  0.00    +0.000 HD
BRANCH  18  21
ATOM     21  C   UNL     1      17.176  39.048  45.500  0.00  0.00    +0.000 A 
ATOM     22  C   UNL     1      16.371  38.332  46.402  0.00  0.00    +0.000 A 
ATOM     23  C   UNL     1      17.901  38.360  44.520  0.00  0.00    +0.000 A 
ATOM     24  C   UNL     1      16.260  36.945  46.307  0.00  0.00    +0.000 A 
ATOM     25  C   UNL     1      17.781  36.966  44.425  0.00  0.00    +0.000 A 
ATOM     26  C   UNL     1      16.953  36.268  45.307  0.00  0.00    +0.000 A 
ATOM     27 CL   UNL     1      16.755  34.568  45.139  0.00  0.00    +0.000 Cl
ENDBRANCH  18  21
ENDBRANCH   2  17
BRANCH   2  28
ATOM     28  C   UNL     1      16.755  43.332  43.938  0.00  0.00    +0.000 C 
ATOM     29  O   UNL     1      16.275  44.402  44.270  0.00  0.00    +0.000 OA
ATOM     30  OXT UNL     1      16.320  42.620  42.872  0.00  0.00    +0.000 OA
ENDBRANCH   2  28
TORSDOF 6
ENDMDL
MODEL 2
REMARK VINA RESULT:      -6.6      1.323      1.716
REMARK  Name = 319953
REMARK  6 active torsions:
REMARK  status: ('A' for Active; 'I' for Inactive)
REMARK    1  A    between atoms: C_3  and  O_5
REMARK    2  A    between atoms: O_5  and  C_8
REMARK    3  A    between atoms: C_14  and  C_15
REMARK    4  A    between atoms: CA_16  and  N_17
REMARK    5  A    between atoms: CA_16  and  C_18
REMARK    6  A    between atoms: C_19  and  C_23
REMARK                            x       y       z     vdW  Elec       q    Type
REMARK                         _______ _______ _______ _____ _____    ______ ____
ROOT
ATOM      1  C   UNL     1      20.147  42.583  43.506  0.00  0.00    +0.000 C 
ATOM      2  CA  UNL     1      19.033  41.941  43.111  0.00  0.00    +0.000 C 
ENDROOT
BRANCH   1   8
ATOM      3  C   UNL     1      22.413  41.279  46.846  0.00  0.00    +0.000 A 
ATOM      4  C   UNL     1      22.015  42.613  46.774  0.00  0.00    +0.000 A 
ATOM      5  C   UNL     1      22.302  40.458  45.720  0.00  0.00    +0.000 A 
ATOM      6  C   UNL     1      21.358  43.081  45.629  0.00  0.00    +0.000 A 
ATOM      7  C   UNL     1      21.627  40.919  44.587  0.00  0.00    +0.000 A 
ATOM      8  C   UNL     1      21.106  42.219  44.556  0.00  0.00    +0.000 A 
BRANCH   3   9
ATOM      9  O   UNL     1      22.877  40.811  48.058  0.00  0.00    +0.000 OA
BRANCH   9  12
ATOM     10 BR   UNL     1      25.645  40.536  46.707  0.00  0.00    +0.000 Br
ATOM     11  C   UNL     1      25.161  41.522  48.254  0.00  0.00    +0.000 A 
ATOM     12  C   UNL     1      23.839  41.567  48.714  0.00  0.00    +0.000 A 
ATOM     13  C   UNL     1      26.169  42.214  48.935  0.00  0.00    +0.000 A 
ATOM     14  C   UNL     1      23.531  42.393  49.806  0.00  0.00    +0.000 A 
ATOM     15  C   UNL     1      25.861  42.971  50.066  0.00  0.00    +0.000 A 
ATOM     16  C   UNL     1      24.540  43.071  50.494  0.00  0.00    +0.000 A 
ENDBRANCH   9  12
ENDBRANCH   3   9
ENDBRANCH   1   8
BRANCH   2  17
ATOM     17  N   UNL     1      18.637  40.675  43.517  0.00  0.00    +0.000 N 
ATOM     18  C   UNL     1      17.760  40.504  44.580  0.00  0.00    +0.000 C 
ATOM     19  O   UNL     1      17.393  41.423  45.308  0.00  0.00    +0.000 OA
ATOM     20  H   UNL     1      18.985  39.884  43.044  0.00  0.00    +0.000 HD
BRANCH  18  21
ATOM     21  C   UNL     1      17.375  39.114  44.930  0.00  0.00    +0.000 A 
ATOM     22  C   UNL     1      17.932  38.079  44.161  0.00  0.00    +0.000 A 
ATOM     23  C   UNL     1      16.580  38.802  46.040  0.00  0.00    +0.000 A 
ATOM     24  C   UNL     1      17.729  36.745  44.512  0.00  0.00    +0.000 A 
ATOM     25  C   UNL     1      16.384  37.458  46.393  0.00  0.00    +0.000 A 
ATOM     26  C   UNL     1      16.969  36.440  45.638  0.00  0.00    +0.000 A 
ATOM     27 CL   UNL     1      16.784  34.799  46.118  0.00  0.00    +0.000 Cl
ENDBRANCH  18  21
ENDBRANCH   2  17
BRANCH   2  28
ATOM     28  C   UNL     1      18.168  42.684  42.140  0.00  0.00    +0.000 C 
ATOM     29  O   UNL     1      18.316  43.847  41.808  0.00  0.00    +0.000 OA
ATOM     30  OXT UNL     1      17.173  41.896  41.666  0.00  0.00    +0.000 OA
ENDBRANCH   2  28
TORSDOF 6
ENDMDL
MODEL 3
REMARK VINA RESULT:      -5.5      4.226      8.439
REMARK  Name = 319953
REMARK  6 active torsions:
REMARK  status: ('A' for Active; 'I' for Inactive)
REMARK    1  A    between atoms: C_3  and  O_5
REMARK    2  A    between atoms: O_5  and  C_8
REMARK    3  A    between atoms: C_14  and  C_15
REMARK    4  A    between atoms: CA_16  and  N_17
REMARK    5  A    between atoms: CA_16  and  C_18
REMARK    6  A    between atoms: C_19  and  C_23
REMARK                            x       y       z     vdW  Elec       q    Type
REMARK                         _______ _______ _______ _____ _____    ______ ____
ROOT
ATOM      1  C   UNL     1      23.274  38.944  44.634  0.00  0.00    +0.000 C 
ATOM      2  CA  UNL     1      23.894  38.718  45.805  0.00  0.00    +0.000 C 
ENDROOT
BRANCH   1   8
ATOM      3  C   UNL     1      20.254  41.851  43.986  0.00  0.00    +0.000 A 
ATOM      4  C   UNL     1      20.353  40.769  43.113  0.00  0.00    +0.000 A 
ATOM      5  C   UNL     1      21.289  42.115  44.889  0.00  0.00    +0.000 A 
ATOM      6  C   UNL     1      21.409  39.860  43.252  0.00  0.00    +0.000 A 
ATOM      7  C   UNL     1      22.329  41.195  45.042  0.00  0.00    +0.000 A 
ATOM      8  C   UNL     1      22.367  40.035  44.257  0.00  0.00    +0.000 A 
BRANCH   3   9
ATOM      9  O   UNL     1      19.101  42.608  43.942  0.00  0.00    +0.000 OA
BRANCH   9  12
ATOM     10 BR   UNL     1      16.871  40.468  43.990  0.00  0.00    +0.000 Br
ATOM     11  C   UNL     1      17.260  41.819  45.262  0.00  0.00    +0.000 A 
ATOM     12  C   UNL     1      18.342  42.693  45.101  0.00  0.00    +0.000 A 
ATOM     13  C   UNL     1      16.429  41.924  46.385  0.00  0.00    +0.000 A 
ATOM     14  C   UNL     1      18.633  43.606  46.127  0.00  0.00    +0.000 A 
ATOM     15  C   UNL     1      16.685  42.889  47.360  0.00  0.00    +0.000 A 
ATOM     16  C   UNL     1      17.795  43.720  47.238  0.00  0.00    +0.000 A 
ENDBRANCH   9  12
ENDBRANCH   3   9
ENDBRANCH   1   8
BRANCH   2  17
ATOM     17  N   UNL     1      23.936  39.589  46.884  0.00  0.00    +0.000 N 
ATOM     18  C   UNL     1      24.898  40.587  46.963  0.00  0.00    +0.000 C 
ATOM     19  O   UNL     1      25.841  40.680  46.182  0.00  0.00    +0.000 OA
ATOM     20  H   UNL     1      23.273  39.497  47.608  0.00  0.00    +0.000 HD
BRANCH  18  21
ATOM     21  C   UNL     1      24.855  41.485  48.144  0.00  0.00    +0.000 A 
ATOM     22  C   UNL     1      23.614  41.651  48.781  0.00  0.00    +0.000 A 
ATOM     23  C   UNL     1      25.999  42.075  48.694  0.00  0.00    +0.000 A 
ATOM     24  C   UNL     1      23.517  42.367  49.973  0.00  0.00    +0.000 A 
ATOM     25  C   UNL     1      25.898  42.788  49.898  0.00  0.00    +0.000 A 
ATOM     26  C   UNL     1      24.664  42.919  50.536  0.00  0.00    +0.000 A 
ATOM     27 CL   UNL     1      24.559  43.734  52.048  0.00  0.00    +0.000 Cl
ENDBRANCH  18  21
ENDBRANCH   2  17
BRANCH   2  28
ATOM     28  C   UNL     1      24.600  37.402  45.921  0.00  0.00    +0.000 C 
ATOM     29  O   UNL     1      25.623  37.096  45.334  0.00  0.00    +0.000 OA
ATOM     30  OXT UNL     1      23.950  36.569  46.768  0.00  0.00    +0.000 OA
ENDBRANCH   2  28
TORSDOF 6
ENDMDL
MODEL 4
REMARK VINA RESULT:      -4.8      1.633      2.258
REMARK  Name = 319953
REMARK  6 active torsions:
REMARK  status: ('A' for Active; 'I' for Inactive)
REMARK    1  A    between atoms: C_3  and  O_5
REMARK    2  A    between atoms: O_5  and  C_8
REMARK    3  A    between atoms: C_14  and  C_15
REMARK    4  A    between atoms: CA_16  and  N_17
REMARK    5  A    between atoms: CA_16  and  C_18
REMARK    6  A    between atoms: C_19  and  C_23
REMARK                            x       y       z     vdW  Elec       q    Type
REMARK                         _______ _______ _______ _____ _____    ______ ____
ROOT
ATOM      1  C   UNL     1      19.069  43.399  45.181  0.00  0.00    +0.000 C 
ATOM      2  CA  UNL     1      17.899  42.821  45.505  0.00  0.00    +0.000 C 
ENDROOT
BRANCH   1   8
ATOM      3  C   UNL     1      22.710  41.227  45.297  0.00  0.00    +0.000 A 
ATOM      4  C   UNL     1      22.586  42.386  46.062  0.00  0.00    +0.000 A 
ATOM      5  C   UNL     1      21.761  40.937  44.312  0.00  0.00    +0.000 A 
ATOM      6  C   UNL     1      21.430  43.169  45.952  0.00  0.00    +0.000 A 
ATOM      7  C   UNL     1      20.598  41.706  44.220  0.00  0.00    +0.000 A 
ATOM      8  C   UNL     1      20.404  42.798  45.076  0.00  0.00    +0.000 A 
BRANCH   3   9
ATOM      9  O   UNL     1      23.767  40.385  45.574  0.00  0.00    +0.000 OA
BRANCH   9  12
ATOM     10 BR   UNL     1      23.273  39.033  48.311  0.00  0.00    +0.000 Br
ATOM     11  C   UNL     1      24.584  40.316  47.830  0.00  0.00    +0.000 A 
ATOM     12  C   UNL     1      24.692  40.803  46.520  0.00  0.00    +0.000 A 
ATOM     13  C   UNL     1      25.456  40.772  48.826  0.00  0.00    +0.000 A 
ATOM     14  C   UNL     1      25.746  41.676  46.209  0.00  0.00    +0.000 A 
ATOM     15  C   UNL     1      26.451  41.701  48.518  0.00  0.00    +0.000 A 
ATOM     16  C   UNL     1      26.605  42.142  47.206  0.00  0.00    +0.000 A 
ENDBRANCH   9  12
ENDBRANCH   3   9
ENDBRANCH   1   8
BRANCH   2  17
ATOM     17  N   UNL     1      17.677  41.459  45.652  0.00  0.00    +0.000 N 
ATOM     18  C   UNL     1      17.250  40.683  44.582  0.00  0.00    +0.000 C 
ATOM     19  O   UNL     1      16.909  41.153  43.499  0.00  0.00    +0.000 OA
ATOM     20  H   UNL     1      17.823  41.036  46.529  0.00  0.00    +0.000 HD
BRANCH  18  21
ATOM     21  C   UNL     1      17.057  39.232  44.826  0.00  0.00    +0.000 A 
ATOM     22  C   UNL     1      17.910  38.347  44.146  0.00  0.00    +0.000 A 
ATOM     23  C   UNL     1      16.149  38.732  45.767  0.00  0.00    +0.000 A 
ATOM     24  C   UNL     1      17.884  36.981  44.424  0.00  0.00    +0.000 A 
ATOM     25  C   UNL     1      16.131  37.358  46.048  0.00  0.00    +0.000 A 
ATOM     26  C   UNL     1      17.005  36.494  45.387  0.00  0.00    +0.000 A 
ATOM     27 CL   UNL     1      17.028  34.821  45.788  0.00  0.00    +0.000 Cl
ENDBRANCH  18  21
ENDBRANCH   2  17
BRANCH   2  28
ATOM     28  C   UNL     1      16.749  43.759  45.713  0.00  0.00    +0.000 C 
ATOM     29  O   UNL     1      16.277  44.070  46.792  0.00  0.00    +0.000 OA
ATOM     30  OXT UNL     1      16.279  44.228  44.532  0.00  0.00    +0.000 OA
ENDBRANCH   2  28
TORSDOF 6
ENDMDL
MODEL 5
REMARK VINA RESULT:      -4.6      4.156      8.758
REMARK  Name = 319953
REMARK  6 active torsions:
REMARK  status: ('A' for Active; 'I' for Inactive)
REMARK    1  A    between atoms: C_3  and  O_5
REMARK    2  A    between atoms: O_5  and  C_8
REMARK    3  A    between atoms: C_14  and  C_15
REMARK    4  A    between atoms: CA_16  and  N_17
REMARK    5  A    between atoms: CA_16  and  C_18
REMARK    6  A    between atoms: C_19  and  C_23
REMARK                            x       y       z     vdW  Elec       q    Type
REMARK                         _______ _______ _______ _____ _____    ______ ____
ROOT
ATOM      1  C   UNL     1      23.136  38.805  44.645  0.00  0.00    +0.000 C 
ATOM      2  CA  UNL     1      23.947  38.707  45.713  0.00  0.00    +0.000 C 
ENDROOT
BRANCH   1   8
ATOM      3  C   UNL     1      19.483  40.944  44.374  0.00  0.00    +0.000 A 
ATOM      4  C   UNL     1      19.877  40.136  43.309  0.00  0.00    +0.000 A 
ATOM      5  C   UNL     1      20.395  41.255  45.388  0.00  0.00    +0.000 A 
ATOM      6  C   UNL     1      21.128  39.508  43.341  0.00  0.00    +0.000 A 
ATOM      7  C   UNL     1      21.634  40.610  45.429  0.00  0.00    +0.000 A 
ATOM      8  C   UNL     1      21.986  39.693  44.431  0.00  0.00    +0.000 A 
BRANCH   3   9
ATOM      9  O   UNL     1      18.175  41.385  44.397  0.00  0.00    +0.000 OA
BRANCH   9  12
ATOM     10 BR   UNL     1      17.180  43.114  46.759  0.00  0.00    +0.000 Br
ATOM     11  C   UNL     1      16.758  41.315  46.332  0.00  0.00    +0.000 A 
ATOM     12  C   UNL     1      17.276  40.688  45.191  0.00  0.00    +0.000 A 
ATOM     13  C   UNL     1      15.905  40.616  47.195  0.00  0.00    +0.000 A 
ATOM     14  C   UNL     1      16.847  39.388  44.881  0.00  0.00    +0.000 A 
ATOM     15  C   UNL     1      15.548  39.296  46.914  0.00  0.00    +0.000 A 
ATOM     16  C   UNL     1      16.008  38.687  45.750  0.00  0.00    +0.000 A 
ENDBRANCH   9  12
ENDBRANCH   3   9
ENDBRANCH   1   8
BRANCH   2  17
ATOM     17  N   UNL     1      23.968  39.567  46.801  0.00  0.00    +0.000 N 
ATOM     18  C   UNL     1      24.861  40.629  46.859  0.00  0.00    +0.000 C 
ATOM     19  O   UNL     1      25.766  40.796  46.045  0.00  0.00    +0.000 OA
ATOM     20  H   UNL     1      23.340  39.421  47.546  0.00  0.00    +0.000 HD
BRANCH  18  21
ATOM     21  C   UNL     1      24.798  41.509  48.052  0.00  0.00    +0.000 A 
ATOM     22  C   UNL     1      23.553  41.641  48.689  0.00  0.00    +0.000 A 
ATOM     23  C   UNL     1      25.930  42.114  48.612  0.00  0.00    +0.000 A 
ATOM     24  C   UNL     1      23.441  42.338  49.892  0.00  0.00    +0.000 A 
ATOM     25  C   UNL     1      25.814  42.808  49.826  0.00  0.00    +0.000 A 
ATOM     26  C   UNL     1      24.576  42.905  50.464  0.00  0.00    +0.000 A 
ATOM     27 CL   UNL     1      24.453  43.696  51.987  0.00  0.00    +0.000 Cl
ENDBRANCH  18  21
ENDBRANCH   2  17
BRANCH   2  28
ATOM     28  C   UNL     1      24.910  37.559  45.691  0.00  0.00    +0.000 C 
ATOM     29  O   UNL     1      26.002  37.563  45.150  0.00  0.00    +0.000 OA
ATOM     30  OXT UNL     1      24.410  36.487  46.351  0.00  0.00    +0.000 OA
ENDBRANCH   2  28
TORSDOF 6
ENDMDL
MODEL 6
REMARK VINA RESULT:      -4.1      1.542      2.162
REMARK  Name = 319953
REMARK  6 active torsions:
REMARK  status: ('A' for Active; 'I' for Inactive)
REMARK    1  A    between atoms: C_3  and  O_5
REMARK    2  A    between atoms: O_5  and  C_8
REMARK    3  A    between atoms: C_14  and  C_15
REMARK    4  A    between atoms: CA_16  and  N_17
REMARK    5  A    between atoms: CA_16  and  C_18
REMARK    6  A    between atoms: C_19  and  C_23
REMARK                            x       y       z     vdW  Elec       q    Type
REMARK                         _______ _______ _______ _____ _____    ______ ____
ROOT
ATOM      1  C   UNL     1      19.225  42.794  45.629  0.00  0.00    +0.000 C 
ATOM      2  CA  UNL     1      18.116  42.309  45.044  0.00  0.00    +0.000 C 
ENDROOT
BRANCH   1   8
ATOM      3  C   UNL     1      22.205  41.242  48.218  0.00  0.00    +0.000 A 
ATOM      4  C   UNL     1      21.623  40.401  47.271  0.00  0.00    +0.000 A 
ATOM      5  C   UNL     1      21.631  42.488  48.489  0.00  0.00    +0.000 A 
ATOM      6  C   UNL     1      20.566  40.871  46.482  0.00  0.00    +0.000 A 
ATOM      7  C   UNL     1      20.592  42.963  47.686  0.00  0.00    +0.000 A 
ATOM      8  C   UNL     1      20.087  42.175  46.644  0.00  0.00    +0.000 A 
BRANCH   3   9
ATOM      9  O   UNL     1      23.362  40.812  48.834  0.00  0.00    +0.000 OA
BRANCH   9  12
ATOM     10 BR   UNL     1      24.433  43.009  50.727  0.00  0.00    +0.000 Br
ATOM     11  C   UNL     1      25.167  42.370  49.100  0.00  0.00    +0.000 A 
ATOM     12  C   UNL     1      24.565  41.331  48.378  0.00  0.00    +0.000 A 
ATOM     13  C   UNL     1      26.344  42.966  48.630  0.00  0.00    +0.000 A 
ATOM     14  C   UNL     1      25.213  40.839  47.234  0.00  0.00    +0.000 A 
ATOM     15  C   UNL     1      26.936  42.518  47.448  0.00  0.00    +0.000 A 
ATOM     16  C   UNL     1      26.377  41.445  46.758  0.00  0.00    +0.000 A 
ENDBRANCH   9  12
ENDBRANCH   3   9
ENDBRANCH   1   8
BRANCH   2  17
ATOM     17  N   UNL     1      17.634  41.014  45.162  0.00  0.00    +0.000 N 
ATOM     18  C   UNL     1      18.104  39.996  44.343  0.00  0.00    +0.000 C 
ATOM     19  O   UNL     1      18.852  40.189  43.388  0.00  0.00    +0.000 OA
ATOM     20  H   UNL     1      16.945  40.813  45.838  0.00  0.00    +0.000 HD
BRANCH  18  21
ATOM     21  C   UNL     1      17.546  38.637  44.554  0.00  0.00    +0.000 A 
ATOM     22  C   UNL     1      18.147  37.579  43.853  0.00  0.00    +0.000 A 
ATOM     23  C   UNL     1      16.535  38.366  45.483  0.00  0.00    +0.000 A 
ATOM     24  C   UNL     1      17.771  36.259  44.100  0.00  0.00    +0.000 A 
ATOM     25  C   UNL     1      16.165  37.036  45.734  0.00  0.00    +0.000 A 
ATOM     26  C   UNL     1      16.792  35.992  45.052  0.00  0.00    +0.000 A 
ATOM     27 CL   UNL     1      16.384  34.360  45.415  0.00  0.00    +0.000 Cl
ENDBRANCH  18  21
ENDBRANCH   2  17
BRANCH   2  28
ATOM     28  C   UNL     1      17.359  43.279  44.188  0.00  0.00    +0.000 C 
ATOM     29  O   UNL     1      16.426  43.969  44.559  0.00  0.00    +0.000 OA
ATOM     30  OXT UNL     1      17.839  43.293  42.922  0.00  0.00    +0.000 OA
ENDBRANCH   2  28
TORSDOF 6
ENDMDL
MODEL 7
REMARK VINA RESULT:      -4.1      3.249      4.772
REMARK  Name = 319953
REMARK  6 active torsions:
REMARK  status: ('A' for Active; 'I' for Inactive)
REMARK    1  A    between atoms: C_3  and  O_5
REMARK    2  A    between atoms: O_5  and  C_8
REMARK    3  A    between atoms: C_14  and  C_15
REMARK    4  A    between atoms: CA_16  and  N_17
REMARK    5  A    between atoms: CA_16  and  C_18
REMARK    6  A    between atoms: C_19  and  C_23
REMARK                            x       y       z     vdW  Elec       q    Type
REMARK                         _______ _______ _______ _____ _____    ______ ____
ROOT
ATOM      1  C   UNL     1      20.502  38.751  44.272  0.00  0.00    +0.000 C 
ATOM      2  CA  UNL     1      19.272  39.287  44.366  0.00  0.00    +0.000 C 
ENDROOT
BRANCH   1   8
ATOM      3  C   UNL     1      24.082  40.400  45.839  0.00  0.00    +0.000 A 
ATOM      4  C   UNL     1      23.078  41.258  45.391  0.00  0.00    +0.000 A 
ATOM      5  C   UNL     1      24.023  39.037  45.531  0.00  0.00    +0.000 A 
ATOM      6  C   UNL     1      21.937  40.728  44.776  0.00  0.00    +0.000 A 
ATOM      7  C   UNL     1      22.874  38.509  44.937  0.00  0.00    +0.000 A 
ATOM      8  C   UNL     1      21.803  39.347  44.602  0.00  0.00    +0.000 A 
BRANCH   3   9
ATOM      9  O   UNL     1      25.091  40.940  46.610  0.00  0.00    +0.000 OA
BRANCH   9  12
ATOM     10 BR   UNL     1      27.558  41.585  48.359  0.00  0.00    +0.000 Br
ATOM     11  C   UNL     1      25.726  41.933  48.700  0.00  0.00    +0.000 A 
ATOM     12  C   UNL     1      24.728  41.603  47.773  0.00  0.00    +0.000 A 
ATOM     13  C   UNL     1      25.386  42.537  49.917  0.00  0.00    +0.000 A 
ATOM     14  C   UNL     1      23.403  41.976  48.045  0.00  0.00    +0.000 A 
ATOM     15  C   UNL     1      24.053  42.833  50.207  0.00  0.00    +0.000 A 
ATOM     16  C   UNL     1      23.064  42.565  49.265  0.00  0.00    +0.000 A 
ENDBRANCH   9  12
ENDBRANCH   3   9
ENDBRANCH   1   8
BRANCH   2  17
ATOM     17  N   UNL     1      18.955  40.494  44.971  0.00  0.00    +0.000 N 
ATOM     18  C   UNL     1      18.356  40.534  46.223  0.00  0.00    +0.000 C 
ATOM     19  O   UNL     1      17.945  39.535  46.808  0.00  0.00    +0.000 OA
ATOM     20  H   UNL     1      19.156  41.338  44.503  0.00  0.00    +0.000 HD
BRANCH  18  21
ATOM     21  C   UNL     1      18.071  41.871  46.801  0.00  0.00    +0.000 A 
ATOM     22  C   UNL     1      19.064  42.447  47.610  0.00  0.00    +0.000 A 
ATOM     23  C   UNL     1      16.920  42.605  46.489  0.00  0.00    +0.000 A 
ATOM     24  C   UNL     1      18.930  43.755  48.077  0.00  0.00    +0.000 A 
ATOM     25  C   UNL     1      16.793  43.922  46.955  0.00  0.00    +0.000 A 
ATOM     26  C   UNL     1      17.801  44.493  47.733  0.00  0.00    +0.000 A 
ATOM     27 CL   UNL     1      17.672  46.131  48.242  0.00  0.00    +0.000 Cl
ENDBRANCH  18  21
ENDBRANCH   2  17
BRANCH   2  28
ATOM     28  C   UNL     1      18.166  38.477  43.761  0.00  0.00    +0.000 C 
ATOM     29  O   UNL     1      18.092  37.261  43.775  0.00  0.00    +0.000 OA
ATOM     30  OXT UNL     1      17.238  39.273  43.178  0.00  0.00    +0.000 OA
ENDBRANCH   2  28
TORSDOF 6
ENDMDL
