MODEL 1
REMARK VINA RESULT:      -8.1      0.000      0.000
REMARK  Name = 322226
REMARK  9 active torsions:
REMARK  status: ('A' for Active; 'I' for Inactive)
REMARK    1  A    between atoms: C_3  and  O_5
REMARK    2  A    between atoms: O_5  and  C_8
REMARK    3  A    between atoms: C_14  and  C_15
REMARK    4  A    between atoms: CA_16  and  N_17
REMARK    5  A    between atoms: CA_16  and  C_18
REMARK    6  A    between atoms: C_19  and  C_23
REMARK    7  A    between atoms: C_23  and  C_24
REMARK    8  A    between atoms: C_24  and  C_25
REMARK    9  A    between atoms: C_30  and  C_31
REMARK                            x       y       z     vdW  Elec       q    Type
REMARK                         _______ _______ _______ _____ _____    ______ ____
ROOT
ATOM      1  C   UNL     1      25.579  40.551  46.885  0.00  0.00    +0.000 C 
ATOM      2  CA  UNL     1      25.463  41.565  47.759  0.00  0.00    +0.000 C 
ENDROOT
BRANCH   1   8
ATOM      3  C   UNL     1      22.516  39.316  44.176  0.00  0.00    +0.000 A 
ATOM      4  C   UNL     1      22.995  38.386  45.089  0.00  0.00    +0.000 A 
ATOM      5  C   UNL     1      23.198  40.522  43.989  0.00  0.00    +0.000 A 
ATOM      6  C   UNL     1      24.054  38.730  45.935  0.00  0.00    +0.000 A 
ATOM      7  C   UNL     1      24.225  40.871  44.861  0.00  0.00    +0.000 A 
ATOM      8  C   UNL     1      24.634  40.005  45.889  0.00  0.00    +0.000 A 
BRANCH   3   9
ATOM      9  O   UNL     1      21.343  39.022  43.518  0.00  0.00    +0.000 OA
BRANCH   9  12
ATOM     10 BR   UNL     1      18.500  37.871  43.810  0.00  0.00    +0.000 Br
ATOM     11  C   UNL     1      19.039  39.665  43.514  0.00  0.00    +0.000 A 
ATOM     12  C   UNL     1      20.389  40.024  43.448  0.00  0.00    +0.000 A 
ATOM     13  C   UNL     1      18.045  40.637  43.359  0.00  0.00    +0.000 A 
ATOM     14  C   UNL     1      20.726  41.382  43.323  0.00  0.00    +0.000 A 
ATOM     15  C   UNL     1      18.394  41.973  43.152  0.00  0.00    +0.000 A 
ATOM     16  C   UNL     1      19.734  42.348  43.146  0.00  0.00    +0.000 A 
ENDBRANCH   9  12
ENDBRANCH   3   9
ENDBRANCH   1   8
BRANCH   2  17
ATOM     17  N   UNL     1      24.292  42.284  47.958  0.00  0.00    +0.000 N 
ATOM     18  C   UNL     1      23.132  41.674  48.392  0.00  0.00    +0.000 C 
ATOM     19  O   UNL     1      23.050  40.478  48.639  0.00  0.00    +0.000 OA
ATOM     20  H   UNL     1      24.289  43.253  47.786  0.00  0.00    +0.000 HD
BRANCH  18  21
ATOM     21  C   UNL     1      21.934  42.601  48.439  0.00  0.00    +0.000 C 
BRANCH  21  22
ATOM     22  C   UNL     1      21.264  42.671  47.071  0.00  0.00    +0.000 C 
BRANCH  22  23
ATOM     23  C   UNL     1      20.003  41.852  46.999  0.00  0.00    +0.000 A 
ATOM     24  C   UNL     1      20.063  40.452  47.020  0.00  0.00    +0.000 A 
ATOM     25  C   UNL     1      18.757  42.480  46.902  0.00  0.00    +0.000 A 
ATOM     26  C   UNL     1      18.895  39.693  46.937  0.00  0.00    +0.000 A 
ATOM     27  C   UNL     1      17.589  41.720  46.820  0.00  0.00    +0.000 A 
ATOM     28  C   UNL     1      17.645  40.319  46.822  0.00  0.00    +0.000 A 
BRANCH  28  29
ATOM     29  C   UNL     1      16.377  39.512  46.681  0.00  0.00    +0.000 C 
ATOM     30  F   UNL     1      15.341  39.991  47.426  0.00  0.00    +0.000 F 
ATOM     31  F   UNL     1      15.925  39.465  45.397  0.00  0.00    +0.000 F 
ATOM     32  F   UNL     1      16.543  38.216  47.067  0.00  0.00    +0.000 F 
ENDBRANCH  28  29
ENDBRANCH  22  23
ENDBRANCH  21  22
ENDBRANCH  18  21
ENDBRANCH   2  17
BRANCH   2  33
ATOM     33  C   UNL     1      26.649  41.842  48.638  0.00  0.00    +0.000 C 
ATOM     34  O   UNL     1      27.738  41.303  48.518  0.00  0.00    +0.000 OA
ATOM     35  OXT UNL     1      26.366  42.730  49.615  0.00  0.00    +0.000 OA
ENDBRANCH   2  33
TORSDOF 9
ENDMDL
MODEL 2
REMARK VINA RESULT:      -7.7      2.152      3.894
REMARK  Name = 322226
REMARK  9 active torsions:
REMARK  status: ('A' for Active; 'I' for Inactive)
REMARK    1  A    between atoms: C_3  and  O_5
REMARK    2  A    between atoms: O_5  and  C_8
REMARK    3  A    between atoms: C_14  and  C_15
REMARK    4  A    between atoms: CA_16  and  N_17
REMARK    5  A    between atoms: CA_16  and  C_18
REMARK    6  A    between atoms: C_19  and  C_23
REMARK    7  A    between atoms: C_23  and  C_24
REMARK    8  A    between atoms: C_24  and  C_25
REMARK    9  A    between atoms: C_30  and  C_31
REMARK                            x       y       z     vdW  Elec       q    Type
REMARK                         _______ _______ _______ _____ _____    ______ ____
ROOT
ATOM      1  C   UNL     1      22.623  41.676  47.756  0.00  0.00    +0.000 C 
ATOM      2  CA  UNL     1      23.146  40.477  47.445  0.00  0.00    +0.000 C 
ENDROOT
BRANCH   1   8
ATOM      3  C   UNL     1      19.159  43.444  45.990  0.00  0.00    +0.000 A 
ATOM      4  C   UNL     1      20.373  43.585  45.331  0.00  0.00    +0.000 A 
ATOM      5  C   UNL     1      19.132  42.966  47.304  0.00  0.00    +0.000 A 
ATOM      6  C   UNL     1      21.542  43.091  45.921  0.00  0.00    +0.000 A 
ATOM      7  C   UNL     1      20.293  42.442  47.866  0.00  0.00    +0.000 A 
ATOM      8  C   UNL     1      21.508  42.441  47.162  0.00  0.00    +0.000 A 
BRANCH   3   9
ATOM      9  O   UNL     1      18.013  43.743  45.290  0.00  0.00    +0.000 OA
BRANCH   9  12
ATOM     10 BR   UNL     1      16.186  41.588  46.520  0.00  0.00    +0.000 Br
ATOM     11  C   UNL     1      16.803  41.755  44.734  0.00  0.00    +0.000 A 
ATOM     12  C   UNL     1      17.601  42.831  44.332  0.00  0.00    +0.000 A 
ATOM     13  C   UNL     1      16.440  40.767  43.814  0.00  0.00    +0.000 A 
ATOM     14  C   UNL     1      17.947  42.950  42.976  0.00  0.00    +0.000 A 
ATOM     15  C   UNL     1      16.859  40.854  42.485  0.00  0.00    +0.000 A 
ATOM     16  C   UNL     1      17.603  41.952  42.063  0.00  0.00    +0.000 A 
ENDBRANCH   9  12
ENDBRANCH   3   9
ENDBRANCH   1   8
BRANCH   2  17
ATOM     17  N   UNL     1      22.748  39.721  46.351  0.00  0.00    +0.000 N 
ATOM     18  C   UNL     1      23.241  39.964  45.085  0.00  0.00    +0.000 C 
ATOM     19  O   UNL     1      24.058  40.841  44.835  0.00  0.00    +0.000 OA
ATOM     20  H   UNL     1      22.099  38.993  46.481  0.00  0.00    +0.000 HD
BRANCH  18  21
ATOM     21  C   UNL     1      22.603  39.112  44.005  0.00  0.00    +0.000 C 
BRANCH  21  22
ATOM     22  C   UNL     1      21.326  39.770  43.495  0.00  0.00    +0.000 C 
BRANCH  22  23
ATOM     23  C   UNL     1      20.095  39.279  44.206  0.00  0.00    +0.000 A 
ATOM     24  C   UNL     1      19.723  39.825  45.442  0.00  0.00    +0.000 A 
ATOM     25  C   UNL     1      19.310  38.267  43.644  0.00  0.00    +0.000 A 
ATOM     26  C   UNL     1      18.589  39.357  46.110  0.00  0.00    +0.000 A 
ATOM     27  C   UNL     1      18.175  37.801  44.311  0.00  0.00    +0.000 A 
ATOM     28  C   UNL     1      17.810  38.331  45.557  0.00  0.00    +0.000 A 
BRANCH  28  29
ATOM     29  C   UNL     1      16.610  37.780  46.288  0.00  0.00    +0.000 C 
ATOM     30  F   UNL     1      16.370  38.393  47.482  0.00  0.00    +0.000 F 
ATOM     31  F   UNL     1      15.459  37.895  45.570  0.00  0.00    +0.000 F 
ATOM     32  F   UNL     1      16.742  36.454  46.572  0.00  0.00    +0.000 F 
ENDBRANCH  28  29
ENDBRANCH  22  23
ENDBRANCH  21  22
ENDBRANCH  18  21
ENDBRANCH   2  17
BRANCH   2  33
ATOM     33  C   UNL     1      24.301  40.004  48.279  0.00  0.00    +0.000 C 
ATOM     34  O   UNL     1      24.228  39.125  49.124  0.00  0.00    +0.000 OA
ATOM     35  OXT UNL     1      25.434  40.691  48.022  0.00  0.00    +0.000 OA
ENDBRANCH   2  33
TORSDOF 9
ENDMDL
MODEL 3
REMARK VINA RESULT:      -7.2      3.891      7.390
REMARK  Name = 322226
REMARK  9 active torsions:
REMARK  status: ('A' for Active; 'I' for Inactive)
REMARK    1  A    between atoms: C_3  and  O_5
REMARK    2  A    between atoms: O_5  and  C_8
REMARK    3  A    between atoms: C_14  and  C_15
REMARK    4  A    between atoms: CA_16  and  N_17
REMARK    5  A    between atoms: CA_16  and  C_18
REMARK    6  A    between atoms: C_19  and  C_23
REMARK    7  A    between atoms: C_23  and  C_24
REMARK    8  A    between atoms: C_24  and  C_25
REMARK    9  A    between atoms: C_30  and  C_31
REMARK                            x       y       z     vdW  Elec       q    Type
REMARK                         _______ _______ _______ _____ _____    ______ ____
ROOT
ATOM      1  C   UNL     1      18.024  39.805  47.151  0.00  0.00    +0.000 C 
ATOM      2  CA  UNL     1      17.109  39.671  46.175  0.00  0.00    +0.000 C 
ENDROOT
BRANCH   1   8
ATOM      3  C   UNL     1      21.576  42.055  47.897  0.00  0.00    +0.000 A 
ATOM      4  C   UNL     1      20.371  42.740  47.831  0.00  0.00    +0.000 A 
ATOM      5  C   UNL     1      21.644  40.723  47.478  0.00  0.00    +0.000 A 
ATOM      6  C   UNL     1      19.199  42.049  47.506  0.00  0.00    +0.000 A 
ATOM      7  C   UNL     1      20.468  40.034  47.194  0.00  0.00    +0.000 A 
ATOM      8  C   UNL     1      19.217  40.669  47.260  0.00  0.00    +0.000 A 
BRANCH   3   9
ATOM      9  O   UNL     1      22.660  42.717  48.427  0.00  0.00    +0.000 OA
BRANCH   9  12
ATOM     10 BR   UNL     1      24.517  43.133  50.851  0.00  0.00    +0.000 Br
ATOM     11  C   UNL     1      24.894  42.312  49.183  0.00  0.00    +0.000 A 
ATOM     12  C   UNL     1      23.911  42.167  48.198  0.00  0.00    +0.000 A 
ATOM     13  C   UNL     1      26.193  41.848  48.952  0.00  0.00    +0.000 A 
ATOM     14  C   UNL     1      24.226  41.466  47.022  0.00  0.00    +0.000 A 
ATOM     15  C   UNL     1      26.514  41.225  47.745  0.00  0.00    +0.000 A 
ATOM     16  C   UNL     1      25.527  41.023  46.784  0.00  0.00    +0.000 A 
ENDBRANCH   9  12
ENDBRANCH   3   9
ENDBRANCH   1   8
BRANCH   2  17
ATOM     17  N   UNL     1      17.185  40.317  44.949  0.00  0.00    +0.000 N 
ATOM     18  C   UNL     1      16.810  41.638  44.802  0.00  0.00    +0.000 C 
ATOM     19  O   UNL     1      16.397  42.329  45.725  0.00  0.00    +0.000 OA
ATOM     20  H   UNL     1      17.515  39.822  44.166  0.00  0.00    +0.000 HD
BRANCH  18  21
ATOM     21  C   UNL     1      16.856  42.131  43.370  0.00  0.00    +0.000 C 
BRANCH  21  22
ATOM     22  C   UNL     1      18.155  42.884  43.109  0.00  0.00    +0.000 C 
BRANCH  22  23
ATOM     23  C   UNL     1      19.377  42.055  43.402  0.00  0.00    +0.000 A 
ATOM     24  C   UNL     1      20.474  42.616  44.067  0.00  0.00    +0.000 A 
ATOM     25  C   UNL     1      19.431  40.714  43.007  0.00  0.00    +0.000 A 
ATOM     26  C   UNL     1      21.614  41.851  44.324  0.00  0.00    +0.000 A 
ATOM     27  C   UNL     1      20.570  39.949  43.266  0.00  0.00    +0.000 A 
ATOM     28  C   UNL     1      21.679  40.512  43.914  0.00  0.00    +0.000 A 
BRANCH  28  29
ATOM     29  C   UNL     1      22.921  39.685  44.139  0.00  0.00    +0.000 C 
ATOM     30  F   UNL     1      23.018  39.180  45.402  0.00  0.00    +0.000 F 
ATOM     31  F   UNL     1      22.999  38.615  43.302  0.00  0.00    +0.000 F 
ATOM     32  F   UNL     1      24.063  40.402  43.938  0.00  0.00    +0.000 F 
ENDBRANCH  28  29
ENDBRANCH  22  23
ENDBRANCH  21  22
ENDBRANCH  18  21
ENDBRANCH   2  17
BRANCH   2  33
ATOM     33  C   UNL     1      16.011  38.672  46.408  0.00  0.00    +0.000 C 
ATOM     34  O   UNL     1      15.905  37.612  45.811  0.00  0.00    +0.000 OA
ATOM     35  OXT UNL     1      15.119  39.098  47.327  0.00  0.00    +0.000 OA
ENDBRANCH   2  33
TORSDOF 9
ENDMDL
MODEL 4
REMARK VINA RESULT:      -7.1      3.106      6.778
REMARK  Name = 322226
REMARK  9 active torsions:
REMARK  status: ('A' for Active; 'I' for Inactive)
REMARK    1  A    between atoms: C_3  and  O_5
REMARK    2  A    between atoms: O_5  and  C_8
REMARK    3  A    between atoms: C_14  and  C_15
REMARK    4  A    between atoms: CA_16  and  N_17
REMARK    5  A    between atoms: CA_16  and  C_18
REMARK    6  A    between atoms: C_19  and  C_23
REMARK    7  A    between atoms: C_23  and  C_24
REMARK    8  A    between atoms: C_24  and  C_25
REMARK    9  A    between atoms: C_30  and  C_31
REMARK                            x       y       z     vdW  Elec       q    Type
REMARK                         _______ _______ _______ _____ _____    ______ ____
ROOT
ATOM      1  C   UNL     1      19.567  41.465  43.636  0.00  0.00    +0.000 C 
ATOM      2  CA  UNL     1      18.385  40.835  43.521  0.00  0.00    +0.000 C 
ENDROOT
BRANCH   1   8
ATOM      3  C   UNL     1      22.454  40.679  46.684  0.00  0.00    +0.000 A 
ATOM      4  C   UNL     1      21.847  41.927  46.665  0.00  0.00    +0.000 A 
ATOM      5  C   UNL     1      22.310  39.819  45.592  0.00  0.00    +0.000 A 
ATOM      6  C   UNL     1      20.958  42.249  45.634  0.00  0.00    +0.000 A 
ATOM      7  C   UNL     1      21.395  40.131  44.590  0.00  0.00    +0.000 A 
ATOM      8  C   UNL     1      20.657  41.326  44.623  0.00  0.00    +0.000 A 
BRANCH   3   9
ATOM      9  O   UNL     1      23.146  40.321  47.819  0.00  0.00    +0.000 OA
BRANCH   9  12
ATOM     10 BR   UNL     1      25.813  40.565  46.296  0.00  0.00    +0.000 Br
ATOM     11  C   UNL     1      25.235  41.486  47.851  0.00  0.00    +0.000 A 
ATOM     12  C   UNL     1      23.962  41.282  48.393  0.00  0.00    +0.000 A 
ATOM     13  C   UNL     1      26.120  42.384  48.456  0.00  0.00    +0.000 A 
ATOM     14  C   UNL     1      23.557  42.062  49.488  0.00  0.00    +0.000 A 
ATOM     15  C   UNL     1      25.735  43.094  49.594  0.00  0.00    +0.000 A 
ATOM     16  C   UNL     1      24.448  42.942  50.104  0.00  0.00    +0.000 A 
ENDBRANCH   9  12
ENDBRANCH   3   9
ENDBRANCH   1   8
BRANCH   2  17
ATOM     17  N   UNL     1      17.902  39.923  44.450  0.00  0.00    +0.000 N 
ATOM     18  C   UNL     1      18.215  38.581  44.378  0.00  0.00    +0.000 C 
ATOM     19  O   UNL     1      18.936  38.101  43.513  0.00  0.00    +0.000 OA
ATOM     20  H   UNL     1      17.321  40.242  45.178  0.00  0.00    +0.000 HD
BRANCH  18  21
ATOM     21  C   UNL     1      17.502  37.730  45.410  0.00  0.00    +0.000 C 
BRANCH  21  22
ATOM     22  C   UNL     1      16.404  38.536  46.095  0.00  0.00    +0.000 C 
BRANCH  22  23
ATOM     23  C   UNL     1      16.867  39.902  46.524  0.00  0.00    +0.000 A 
ATOM     24  C   UNL     1      16.146  41.045  46.154  0.00  0.00    +0.000 A 
ATOM     25  C   UNL     1      18.027  40.046  47.292  0.00  0.00    +0.000 A 
ATOM     26  C   UNL     1      16.585  42.314  46.538  0.00  0.00    +0.000 A 
ATOM     27  C   UNL     1      18.465  41.315  47.677  0.00  0.00    +0.000 A 
ATOM     28  C   UNL     1      17.757  42.463  47.293  0.00  0.00    +0.000 A 
BRANCH  28  29
ATOM     29  C   UNL     1      18.273  43.829  47.675  0.00  0.00    +0.000 C 
ATOM     30  F   UNL     1      19.167  44.343  46.783  0.00  0.00    +0.000 F 
ATOM     31  F   UNL     1      17.279  44.754  47.783  0.00  0.00    +0.000 F 
ATOM     32  F   UNL     1      18.911  43.823  48.878  0.00  0.00    +0.000 F 
ENDBRANCH  28  29
ENDBRANCH  22  23
ENDBRANCH  21  22
ENDBRANCH  18  21
ENDBRANCH   2  17
BRANCH   2  33
ATOM     33  C   UNL     1      17.508  41.242  42.372  0.00  0.00    +0.000 C 
ATOM     34  O   UNL     1      17.789  42.114  41.565  0.00  0.00    +0.000 OA
ATOM     35  OXT UNL     1      16.342  40.563  42.353  0.00  0.00    +0.000 OA
ENDBRANCH   2  33
TORSDOF 9
ENDMDL
MODEL 5
REMARK VINA RESULT:      -6.7      3.978      7.342
REMARK  Name = 322226
REMARK  9 active torsions:
REMARK  status: ('A' for Active; 'I' for Inactive)
REMARK    1  A    between atoms: C_3  and  O_5
REMARK    2  A    between atoms: O_5  and  C_8
REMARK    3  A    between atoms: C_14  and  C_15
REMARK    4  A    between atoms: CA_16  and  N_17
REMARK    5  A    between atoms: CA_16  and  C_18
REMARK    6  A    between atoms: C_19  and  C_23
REMARK    7  A    between atoms: C_23  and  C_24
REMARK    8  A    between atoms: C_24  and  C_25
REMARK    9  A    between atoms: C_30  and  C_31
REMARK                            x       y       z     vdW  Elec       q    Type
REMARK                         _______ _______ _______ _____ _____    ______ ____
ROOT
ATOM      1  C   UNL     1      18.616  43.405  46.304  0.00  0.00    +0.000 C 
ATOM      2  CA  UNL     1      17.513  43.193  45.565  0.00  0.00    +0.000 C 
ENDROOT
BRANCH   1   8
ATOM      3  C   UNL     1      22.106  41.146  47.283  0.00  0.00    +0.000 A 
ATOM      4  C   UNL     1      22.269  42.321  46.562  0.00  0.00    +0.000 A 
ATOM      5  C   UNL     1      20.829  40.603  47.449  0.00  0.00    +0.000 A 
ATOM      6  C   UNL     1      21.143  43.043  46.152  0.00  0.00    +0.000 A 
ATOM      7  C   UNL     1      19.714  41.347  47.073  0.00  0.00    +0.000 A 
ATOM      8  C   UNL     1      19.849  42.609  46.470  0.00  0.00    +0.000 A 
BRANCH   3   9
ATOM      9  O   UNL     1      23.226  40.584  47.852  0.00  0.00    +0.000 OA
BRANCH   9  12
ATOM     10 BR   UNL     1      26.011  40.698  46.540  0.00  0.00    +0.000 Br
ATOM     11  C   UNL     1      25.396  41.557  48.115  0.00  0.00    +0.000 A 
ATOM     12  C   UNL     1      24.073  41.429  48.551  0.00  0.00    +0.000 A 
ATOM     13  C   UNL     1      26.304  42.331  48.845  0.00  0.00    +0.000 A 
ATOM     14  C   UNL     1      23.652  42.165  49.671  0.00  0.00    +0.000 A 
ATOM     15  C   UNL     1      25.893  42.993  50.004  0.00  0.00    +0.000 A 
ATOM     16  C   UNL     1      24.564  42.920  50.411  0.00  0.00    +0.000 A 
ENDBRANCH   9  12
ENDBRANCH   3   9
ENDBRANCH   1   8
BRANCH   2  17
ATOM     17  N   UNL     1      17.284  42.037  44.831  0.00  0.00    +0.000 N 
ATOM     18  C   UNL     1      16.667  40.936  45.388  0.00  0.00    +0.000 C 
ATOM     19  O   UNL     1      16.272  40.897  46.546  0.00  0.00    +0.000 OA
ATOM     20  H   UNL     1      17.570  42.003  43.890  0.00  0.00    +0.000 HD
BRANCH  18  21
ATOM     21  C   UNL     1      16.610  39.734  44.465  0.00  0.00    +0.000 C 
BRANCH  21  22
ATOM     22  C   UNL     1      17.447  39.985  43.216  0.00  0.00    +0.000 C 
BRANCH  22  23
ATOM     23  C   UNL     1      18.926  39.898  43.479  0.00  0.00    +0.000 A 
ATOM     24  C   UNL     1      19.776  40.951  43.116  0.00  0.00    +0.000 A 
ATOM     25  C   UNL     1      19.470  38.760  44.084  0.00  0.00    +0.000 A 
ATOM     26  C   UNL     1      21.150  40.862  43.345  0.00  0.00    +0.000 A 
ATOM     27  C   UNL     1      20.844  38.673  44.315  0.00  0.00    +0.000 A 
ATOM     28  C   UNL     1      21.701  39.716  43.935  0.00  0.00    +0.000 A 
BRANCH  28  29
ATOM     29  C   UNL     1      23.190  39.583  44.146  0.00  0.00    +0.000 C 
ATOM     30  F   UNL     1      23.849  40.777  44.148  0.00  0.00    +0.000 F 
ATOM     31  F   UNL     1      23.502  38.981  45.326  0.00  0.00    +0.000 F 
ATOM     32  F   UNL     1      23.784  38.834  43.175  0.00  0.00    +0.000 F 
ENDBRANCH  28  29
ENDBRANCH  22  23
ENDBRANCH  21  22
ENDBRANCH  18  21
ENDBRANCH   2  17
BRANCH   2  33
ATOM     33  C   UNL     1      16.433  44.234  45.645  0.00  0.00    +0.000 C 
ATOM     34  O   UNL     1      15.906  44.756  44.676  0.00  0.00    +0.000 OA
ATOM     35  OXT UNL     1      16.135  44.565  46.919  0.00  0.00    +0.000 OA
ENDBRANCH   2  33
TORSDOF 9
ENDMDL
MODEL 6
REMARK VINA RESULT:      -6.1      2.289      4.472
REMARK  Name = 322226
REMARK  9 active torsions:
REMARK  status: ('A' for Active; 'I' for Inactive)
REMARK    1  A    between atoms: C_3  and  O_5
REMARK    2  A    between atoms: O_5  and  C_8
REMARK    3  A    between atoms: C_14  and  C_15
REMARK    4  A    between atoms: CA_16  and  N_17
REMARK    5  A    between atoms: CA_16  and  C_18
REMARK    6  A    between atoms: C_19  and  C_23
REMARK    7  A    between atoms: C_23  and  C_24
REMARK    8  A    between atoms: C_24  and  C_25
REMARK    9  A    between atoms: C_30  and  C_31
REMARK                            x       y       z     vdW  Elec       q    Type
REMARK                         _______ _______ _______ _____ _____    ______ ____
ROOT
ATOM      1  C   UNL     1      22.355  42.138  48.372  0.00  0.00    +0.000 C 
ATOM      2  CA  UNL     1      23.576  41.731  47.984  0.00  0.00    +0.000 C 
ENDROOT
BRANCH   1   8
ATOM      3  C   UNL     1      18.659  40.946  46.595  0.00  0.00    +0.000 A 
ATOM      4  C   UNL     1      18.747  42.227  47.122  0.00  0.00    +0.000 A 
ATOM      5  C   UNL     1      19.657  40.008  46.874  0.00  0.00    +0.000 A 
ATOM      6  C   UNL     1      19.913  42.624  47.785  0.00  0.00    +0.000 A 
ATOM      7  C   UNL     1      20.830  40.422  47.500  0.00  0.00    +0.000 A 
ATOM      8  C   UNL     1      21.004  41.753  47.915  0.00  0.00    +0.000 A 
BRANCH   3   9
ATOM      9  O   UNL     1      17.595  40.666  45.768  0.00  0.00    +0.000 OA
BRANCH   9  12
ATOM     10 BR   UNL     1      15.347  39.377  47.435  0.00  0.00    +0.000 Br
ATOM     11  C   UNL     1      16.450  38.592  46.106  0.00  0.00    +0.000 A 
ATOM     12  C   UNL     1      17.404  39.341  45.409  0.00  0.00    +0.000 A 
ATOM     13  C   UNL     1      16.290  37.230  45.833  0.00  0.00    +0.000 A 
ATOM     14  C   UNL     1      18.124  38.727  44.371  0.00  0.00    +0.000 A 
ATOM     15  C   UNL     1      17.070  36.611  44.855  0.00  0.00    +0.000 A 
ATOM     16  C   UNL     1      17.979  37.363  44.114  0.00  0.00    +0.000 A 
ENDBRANCH   9  12
ENDBRANCH   3   9
ENDBRANCH   1   8
BRANCH   2  17
ATOM     17  N   UNL     1      23.800  40.863  46.924  0.00  0.00    +0.000 N 
ATOM     18  C   UNL     1      23.700  39.495  47.074  0.00  0.00    +0.000 C 
ATOM     19  O   UNL     1      23.403  38.952  48.130  0.00  0.00    +0.000 OA
ATOM     20  H   UNL     1      24.037  41.233  46.043  0.00  0.00    +0.000 HD
BRANCH  18  21
ATOM     21  C   UNL     1      24.093  38.713  45.836  0.00  0.00    +0.000 C 
BRANCH  21  22
ATOM     22  C   UNL     1      24.198  39.643  44.632  0.00  0.00    +0.000 C 
BRANCH  22  23
ATOM     23  C   UNL     1      22.877  40.256  44.255  0.00  0.00    +0.000 A 
ATOM     24  C   UNL     1      21.946  39.530  43.499  0.00  0.00    +0.000 A 
ATOM     25  C   UNL     1      22.565  41.562  44.649  0.00  0.00    +0.000 A 
ATOM     26  C   UNL     1      20.727  40.106  43.135  0.00  0.00    +0.000 A 
ATOM     27  C   UNL     1      21.345  42.136  44.286  0.00  0.00    +0.000 A 
ATOM     28  C   UNL     1      20.419  41.420  43.514  0.00  0.00    +0.000 A 
BRANCH  28  29
ATOM     29  C   UNL     1      19.128  42.075  43.087  0.00  0.00    +0.000 C 
ATOM     30  F   UNL     1      18.216  41.199  42.575  0.00  0.00    +0.000 F 
ATOM     31  F   UNL     1      18.499  42.713  44.112  0.00  0.00    +0.000 F 
ATOM     32  F   UNL     1      19.320  43.016  42.121  0.00  0.00    +0.000 F 
ENDBRANCH  28  29
ENDBRANCH  22  23
ENDBRANCH  21  22
ENDBRANCH  18  21
ENDBRANCH   2  17
BRANCH   2  33
ATOM     33  C   UNL     1      24.751  42.353  48.681  0.00  0.00    +0.000 C 
ATOM     34  O   UNL     1      24.700  42.885  49.779  0.00  0.00    +0.000 OA
ATOM     35  OXT UNL     1      25.876  42.297  47.937  0.00  0.00    +0.000 OA
ENDBRANCH   2  33
TORSDOF 9
ENDMDL
MODEL 7
REMARK VINA RESULT:      -5.9      2.448      4.684
REMARK  Name = 322226
REMARK  9 active torsions:
REMARK  status: ('A' for Active; 'I' for Inactive)
REMARK    1  A    between atoms: C_3  and  O_5
REMARK    2  A    between atoms: O_5  and  C_8
REMARK    3  A    between atoms: C_14  and  C_15
REMARK    4  A    between atoms: CA_16  and  N_17
REMARK    5  A    between atoms: CA_16  and  C_18
REMARK    6  A    between atoms: C_19  and  C_23
REMARK    7  A    between atoms: C_23  and  C_24
REMARK    8  A    between atoms: C_24  and  C_25
REMARK    9  A    between atoms: C_30  and  C_31
REMARK                            x       y       z     vdW  Elec       q    Type
REMARK                         _______ _______ _______ _____ _____    ______ ____
ROOT
ATOM      1  C   UNL     1      22.678  42.405  48.807  0.00  0.00    +0.000 C 
ATOM      2  CA  UNL     1      23.925  42.026  49.135  0.00  0.00    +0.000 C 
ENDROOT
BRANCH   1   8
ATOM      3  C   UNL     1      19.771  41.544  45.798  0.00  0.00    +0.000 A 
ATOM      4  C   UNL     1      20.193  40.504  46.616  0.00  0.00    +0.000 A 
ATOM      5  C   UNL     1      20.467  42.756  45.799  0.00  0.00    +0.000 A 
ATOM      6  C   UNL     1      21.203  40.730  47.557  0.00  0.00    +0.000 A 
ATOM      7  C   UNL     1      21.445  42.984  46.764  0.00  0.00    +0.000 A 
ATOM      8  C   UNL     1      21.790  41.995  47.700  0.00  0.00    +0.000 A 
BRANCH   3   9
ATOM      9  O   UNL     1      18.637  41.345  45.044  0.00  0.00    +0.000 OA
BRANCH   9  12
ATOM     10 BR   UNL     1      16.667  42.703  46.985  0.00  0.00    +0.000 Br
ATOM     11  C   UNL     1      16.766  40.882  46.461  0.00  0.00    +0.000 A 
ATOM     12  C   UNL     1      17.707  40.439  45.527  0.00  0.00    +0.000 A 
ATOM     13  C   UNL     1      15.868  39.978  47.037  0.00  0.00    +0.000 A 
ATOM     14  C   UNL     1      17.669  39.098  45.108  0.00  0.00    +0.000 A 
ATOM     15  C   UNL     1      15.895  38.630  46.673  0.00  0.00    +0.000 A 
ATOM     16  C   UNL     1      16.787  38.192  45.699  0.00  0.00    +0.000 A 
ENDBRANCH   9  12
ENDBRANCH   3   9
ENDBRANCH   1   8
BRANCH   2  17
ATOM     17  N   UNL     1      24.700  41.169  48.364  0.00  0.00    +0.000 N 
ATOM     18  C   UNL     1      25.658  41.645  47.492  0.00  0.00    +0.000 C 
ATOM     19  O   UNL     1      25.899  42.836  47.339  0.00  0.00    +0.000 OA
ATOM     20  H   UNL     1      24.563  40.198  48.443  0.00  0.00    +0.000 HD
BRANCH  18  21
ATOM     21  C   UNL     1      26.318  40.565  46.658  0.00  0.00    +0.000 C 
BRANCH  21  22
ATOM     22  C   UNL     1      25.423  39.333  46.582  0.00  0.00    +0.000 C 
BRANCH  22  23
ATOM     23  C   UNL     1      24.286  39.499  45.609  0.00  0.00    +0.000 A 
ATOM     24  C   UNL     1      24.103  40.711  44.931  0.00  0.00    +0.000 A 
ATOM     25  C   UNL     1      23.395  38.446  45.377  0.00  0.00    +0.000 A 
ATOM     26  C   UNL     1      23.039  40.870  44.041  0.00  0.00    +0.000 A 
ATOM     27  C   UNL     1      22.332  38.605  44.486  0.00  0.00    +0.000 A 
ATOM     28  C   UNL     1      22.133  39.823  43.820  0.00  0.00    +0.000 A 
BRANCH  28  29
ATOM     29  C   UNL     1      20.949  39.994  42.899  0.00  0.00    +0.000 C 
ATOM     30  F   UNL     1      21.198  39.612  41.614  0.00  0.00    +0.000 F 
ATOM     31  F   UNL     1      19.864  39.276  43.300  0.00  0.00    +0.000 F 
ATOM     32  F   UNL     1      20.535  41.290  42.826  0.00  0.00    +0.000 F 
ENDBRANCH  28  29
ENDBRANCH  22  23
ENDBRANCH  21  22
ENDBRANCH  18  21
ENDBRANCH   2  17
BRANCH   2  33
ATOM     33  C   UNL     1      24.532  42.668  50.349  0.00  0.00    +0.000 C 
ATOM     34  O   UNL     1      25.600  43.261  50.355  0.00  0.00    +0.000 OA
ATOM     35  OXT UNL     1      23.784  42.479  51.456  0.00  0.00    +0.000 OA
ENDBRANCH   2  33
TORSDOF 9
ENDMDL
MODEL 8
REMARK VINA RESULT:      -5.8      2.346      4.305
REMARK  Name = 322226
REMARK  9 active torsions:
REMARK  status: ('A' for Active; 'I' for Inactive)
REMARK    1  A    between atoms: C_3  and  O_5
REMARK    2  A    between atoms: O_5  and  C_8
REMARK    3  A    between atoms: C_14  and  C_15
REMARK    4  A    between atoms: CA_16  and  N_17
REMARK    5  A    between atoms: CA_16  and  C_18
REMARK    6  A    between atoms: C_19  and  C_23
REMARK    7  A    between atoms: C_23  and  C_24
REMARK    8  A    between atoms: C_24  and  C_25
REMARK    9  A    between atoms: C_30  and  C_31
REMARK                            x       y       z     vdW  Elec       q    Type
REMARK                         _______ _______ _______ _____ _____    ______ ____
ROOT
ATOM      1  C   UNL     1      22.439  42.419  48.667  0.00  0.00    +0.000 C 
ATOM      2  CA  UNL     1      23.542  41.701  48.938  0.00  0.00    +0.000 C 
ENDROOT
BRANCH   1   8
ATOM      3  C   UNL     1      18.636  41.481  46.965  0.00  0.00    +0.000 A 
ATOM      4  C   UNL     1      19.640  40.525  46.888  0.00  0.00    +0.000 A 
ATOM      5  C   UNL     1      18.947  42.787  47.354  0.00  0.00    +0.000 A 
ATOM      6  C   UNL     1      20.921  40.828  47.360  0.00  0.00    +0.000 A 
ATOM      7  C   UNL     1      20.213  43.069  47.858  0.00  0.00    +0.000 A 
ATOM      8  C   UNL     1      21.208  42.078  47.926  0.00  0.00    +0.000 A 
BRANCH   3   9
ATOM      9  O   UNL     1      17.347  41.079  46.696  0.00  0.00    +0.000 OA
BRANCH   9  12
ATOM     10 BR   UNL     1      16.998  38.163  45.763  0.00  0.00    +0.000 Br
ATOM     11  C   UNL     1      16.813  39.768  44.767  0.00  0.00    +0.000 A 
ATOM     12  C   UNL     1      16.968  41.023  45.365  0.00  0.00    +0.000 A 
ATOM     13  C   UNL     1      16.517  39.670  43.404  0.00  0.00    +0.000 A 
ATOM     14  C   UNL     1      16.725  42.175  44.597  0.00  0.00    +0.000 A 
ATOM     15  C   UNL     1      16.359  40.823  42.633  0.00  0.00    +0.000 A 
ATOM     16  C   UNL     1      16.451  42.077  43.233  0.00  0.00    +0.000 A 
ENDBRANCH   9  12
ENDBRANCH   3   9
ENDBRANCH   1   8
BRANCH   2  17
ATOM     17  N   UNL     1      23.774  40.424  48.445  0.00  0.00    +0.000 N 
ATOM     18  C   UNL     1      24.648  40.198  47.401  0.00  0.00    +0.000 C 
ATOM     19  O   UNL     1      25.281  41.088  46.846  0.00  0.00    +0.000 OA
ATOM     20  H   UNL     1      23.303  39.660  48.850  0.00  0.00    +0.000 HD
BRANCH  18  21
ATOM     21  C   UNL     1      24.680  38.758  46.929  0.00  0.00    +0.000 C 
BRANCH  21  22
ATOM     22  C   UNL     1      24.584  38.695  45.409  0.00  0.00    +0.000 C 
BRANCH  22  23
ATOM     23  C   UNL     1      23.419  39.480  44.867  0.00  0.00    +0.000 A 
ATOM     24  C   UNL     1      22.344  38.824  44.254  0.00  0.00    +0.000 A 
ATOM     25  C   UNL     1      23.402  40.875  44.963  0.00  0.00    +0.000 A 
ATOM     26  C   UNL     1      21.272  39.553  43.737  0.00  0.00    +0.000 A 
ATOM     27  C   UNL     1      22.328  41.604  44.447  0.00  0.00    +0.000 A 
ATOM     28  C   UNL     1      21.259  40.953  43.816  0.00  0.00    +0.000 A 
BRANCH  28  29
ATOM     29  C   UNL     1      20.132  41.759  43.218  0.00  0.00    +0.000 C 
ATOM     30  F   UNL     1      19.481  42.543  44.125  0.00  0.00    +0.000 F 
ATOM     31  F   UNL     1      20.552  42.599  42.231  0.00  0.00    +0.000 F 
ATOM     32  F   UNL     1      19.174  40.970  42.655  0.00  0.00    +0.000 F 
ENDBRANCH  28  29
ENDBRANCH  22  23
ENDBRANCH  21  22
ENDBRANCH  18  21
ENDBRANCH   2  17
BRANCH   2  33
ATOM     33  C   UNL     1      24.619  42.384  49.730  0.00  0.00    +0.000 C 
ATOM     34  O   UNL     1      25.692  42.743  49.270  0.00  0.00    +0.000 OA
ATOM     35  OXT UNL     1      24.288  42.523  51.032  0.00  0.00    +0.000 OA
ENDBRANCH   2  33
TORSDOF 9
ENDMDL
