MODEL 1
REMARK VINA RESULT:      -6.7      0.000      0.000
REMARK  Name = 321366
REMARK  7 active torsions:
REMARK  status: ('A' for Active; 'I' for Inactive)
REMARK    1  A    between atoms: C_3  and  O_5
REMARK    2  A    between atoms: O_5  and  C_8
REMARK    3  A    between atoms: C_14  and  C_15
REMARK    4  A    between atoms: CA_16  and  N_17
REMARK    5  A    between atoms: CA_16  and  C_18
REMARK    6  A    between atoms: C_19  and  C_23
REMARK    7  A    between atoms: C_23  and  C_24
REMARK                            x       y       z     vdW  Elec       q    Type
REMARK                         _______ _______ _______ _____ _____    ______ ____
ROOT
ATOM      1  C   UNL     1      24.242  40.683  45.159  0.00  0.00    +0.000 C 
ATOM      2  CA  UNL     1      24.314  41.362  46.316  0.00  0.00    +0.000 C 
ENDROOT
BRANCH   1   8
ATOM      3  C   UNL     1      20.514  39.550  43.508  0.00  0.00    +0.000 A 
ATOM      4  C   UNL     1      21.356  38.571  44.031  0.00  0.00    +0.000 A 
ATOM      5  C   UNL     1      21.005  40.838  43.278  0.00  0.00    +0.000 A 
ATOM      6  C   UNL     1      22.640  38.913  44.468  0.00  0.00    +0.000 A 
ATOM      7  C   UNL     1      22.279  41.186  43.736  0.00  0.00    +0.000 A 
ATOM      8  C   UNL     1      23.084  40.234  44.377  0.00  0.00    +0.000 A 
BRANCH   3   9
ATOM      9  O   UNL     1      19.207  39.193  43.254  0.00  0.00    +0.000 OA
BRANCH   9  12
ATOM     10 BR   UNL     1      16.993  41.142  42.372  0.00  0.00    +0.000 Br
ATOM     11  C   UNL     1      17.207  40.250  44.033  0.00  0.00    +0.000 A 
ATOM     12  C   UNL     1      18.269  39.365  44.260  0.00  0.00    +0.000 A 
ATOM     13  C   UNL     1      16.265  40.499  45.038  0.00  0.00    +0.000 A 
ATOM     14  C   UNL     1      18.318  38.667  45.476  0.00  0.00    +0.000 A 
ATOM     15  C   UNL     1      16.368  39.852  46.270  0.00  0.00    +0.000 A 
ATOM     16  C   UNL     1      17.386  38.928  46.485  0.00  0.00    +0.000 A 
ENDBRANCH   9  12
ENDBRANCH   3   9
ENDBRANCH   1   8
BRANCH   2  17
ATOM     17  N   UNL     1      23.289  41.979  47.011  0.00  0.00    +0.000 N 
ATOM     18  C   UNL     1      22.292  41.314  47.706  0.00  0.00    +0.000 C 
ATOM     19  O   UNL     1      22.171  40.092  47.746  0.00  0.00    +0.000 OA
ATOM     20  H   UNL     1      23.266  42.963  47.011  0.00  0.00    +0.000 HD
BRANCH  18  21
ATOM     21  C   UNL     1      21.252  42.235  48.327  0.00  0.00    +0.000 C 
BRANCH  21  22
ATOM     22  C   UNL     1      20.092  42.589  47.429  0.00  0.00    +0.000 A 
ATOM     23  C   UNL     1      18.857  42.931  48.005  0.00  0.00    +0.000 A 
ATOM     24  C   UNL     1      20.235  42.686  46.037  0.00  0.00    +0.000 A 
ATOM     25  C   UNL     1      17.781  43.329  47.206  0.00  0.00    +0.000 A 
ATOM     26  C   UNL     1      19.159  43.082  45.236  0.00  0.00    +0.000 A 
ATOM     27  C   UNL     1      17.937  43.399  45.824  0.00  0.00    +0.000 A 
ATOM     28 BR   UNL     1      16.486  43.943  44.742  0.00  0.00    +0.000 Br
ENDBRANCH  21  22
ENDBRANCH  18  21
ENDBRANCH   2  17
BRANCH   2  29
ATOM     29  C   UNL     1      25.681  41.403  46.938  0.00  0.00    +0.000 C 
ATOM     30  O   UNL     1      26.109  42.293  47.654  0.00  0.00    +0.000 OA
ATOM     31  OXT UNL     1      26.406  40.314  46.588  0.00  0.00    +0.000 OA
ENDBRANCH   2  29
TORSDOF 7
ENDMDL
MODEL 2
REMARK VINA RESULT:      -6.5      3.293      6.938
REMARK  Name = 321366
REMARK  7 active torsions:
REMARK  status: ('A' for Active; 'I' for Inactive)
REMARK    1  A    between atoms: C_3  and  O_5
REMARK    2  A    between atoms: O_5  and  C_8
REMARK    3  A    between atoms: C_14  and  C_15
REMARK    4  A    between atoms: CA_16  and  N_17
REMARK    5  A    between atoms: CA_16  and  C_18
REMARK    6  A    between atoms: C_19  and  C_23
REMARK    7  A    between atoms: C_23  and  C_24
REMARK                            x       y       z     vdW  Elec       q    Type
REMARK                         _______ _______ _______ _____ _____    ______ ____
ROOT
ATOM      1  C   UNL     1      20.288  42.192  43.474  0.00  0.00    +0.000 C 
ATOM      2  CA  UNL     1      18.946  42.135  43.460  0.00  0.00    +0.000 C 
ENDROOT
BRANCH   1   8
ATOM      3  C   UNL     1      22.497  41.132  46.923  0.00  0.00    +0.000 A 
ATOM      4  C   UNL     1      22.010  42.431  46.796  0.00  0.00    +0.000 A 
ATOM      5  C   UNL     1      22.499  40.280  45.817  0.00  0.00    +0.000 A 
ATOM      6  C   UNL     1      21.385  42.831  45.610  0.00  0.00    +0.000 A 
ATOM      7  C   UNL     1      21.855  40.670  44.640  0.00  0.00    +0.000 A 
ATOM      8  C   UNL     1      21.252  41.932  44.550  0.00  0.00    +0.000 A 
BRANCH   3   9
ATOM      9  O   UNL     1      22.946  40.743  48.167  0.00  0.00    +0.000 OA
BRANCH   9  12
ATOM     10 BR   UNL     1      25.699  40.606  46.794  0.00  0.00    +0.000 Br
ATOM     11  C   UNL     1      25.182  41.577  48.340  0.00  0.00    +0.000 A 
ATOM     12  C   UNL     1      23.866  41.549  48.819  0.00  0.00    +0.000 A 
ATOM     13  C   UNL     1      26.160  42.334  48.998  0.00  0.00    +0.000 A 
ATOM     14  C   UNL     1      23.528  42.364  49.911  0.00  0.00    +0.000 A 
ATOM     15  C   UNL     1      25.824  43.081  50.127  0.00  0.00    +0.000 A 
ATOM     16  C   UNL     1      24.508  43.106  50.576  0.00  0.00    +0.000 A 
ENDBRANCH   9  12
ENDBRANCH   3   9
ENDBRANCH   1   8
BRANCH   2  17
ATOM     17  N   UNL     1      18.101  41.641  44.438  0.00  0.00    +0.000 N 
ATOM     18  C   UNL     1      17.563  42.390  45.471  0.00  0.00    +0.000 C 
ATOM     19  O   UNL     1      17.814  43.577  45.671  0.00  0.00    +0.000 OA
ATOM     20  H   UNL     1      17.865  40.686  44.397  0.00  0.00    +0.000 HD
BRANCH  18  21
ATOM     21  C   UNL     1      16.717  41.583  46.445  0.00  0.00    +0.000 C 
BRANCH  21  22
ATOM     22  C   UNL     1      16.643  40.104  46.156  0.00  0.00    +0.000 A 
ATOM     23  C   UNL     1      16.982  39.636  44.875  0.00  0.00    +0.000 A 
ATOM     24  C   UNL     1      16.343  39.168  47.156  0.00  0.00    +0.000 A 
ATOM     25  C   UNL     1      16.989  38.268  44.593  0.00  0.00    +0.000 A 
ATOM     26  C   UNL     1      16.348  37.798  46.875  0.00  0.00    +0.000 A 
ATOM     27  C   UNL     1      16.668  37.355  45.594  0.00  0.00    +0.000 A 
ATOM     28 BR   UNL     1      16.684  35.504  45.216  0.00  0.00    +0.000 Br
ENDBRANCH  21  22
ENDBRANCH  18  21
ENDBRANCH   2  17
BRANCH   2  29
ATOM     29  C   UNL     1      18.302  42.731  42.240  0.00  0.00    +0.000 C 
ATOM     30  O   UNL     1      18.557  43.825  41.765  0.00  0.00    +0.000 OA
ATOM     31  OXT UNL     1      17.369  41.895  41.727  0.00  0.00    +0.000 OA
ENDBRANCH   2  29
TORSDOF 7
ENDMDL
MODEL 3
REMARK VINA RESULT:      -6.0      1.836      2.701
REMARK  Name = 321366
REMARK  7 active torsions:
REMARK  status: ('A' for Active; 'I' for Inactive)
REMARK    1  A    between atoms: C_3  and  O_5
REMARK    2  A    between atoms: O_5  and  C_8
REMARK    3  A    between atoms: C_14  and  C_15
REMARK    4  A    between atoms: CA_16  and  N_17
REMARK    5  A    between atoms: CA_16  and  C_18
REMARK    6  A    between atoms: C_19  and  C_23
REMARK    7  A    between atoms: C_23  and  C_24
REMARK                            x       y       z     vdW  Elec       q    Type
REMARK                         _______ _______ _______ _____ _____    ______ ____
ROOT
ATOM      1  C   UNL     1      25.715  40.707  46.703  0.00  0.00    +0.000 C 
ATOM      2  CA  UNL     1      25.479  41.577  47.699  0.00  0.00    +0.000 C 
ENDROOT
BRANCH   1   8
ATOM      3  C   UNL     1      22.570  39.304  44.244  0.00  0.00    +0.000 A 
ATOM      4  C   UNL     1      23.020  38.510  45.297  0.00  0.00    +0.000 A 
ATOM      5  C   UNL     1      23.322  40.408  43.835  0.00  0.00    +0.000 A 
ATOM      6  C   UNL     1      24.138  38.904  46.041  0.00  0.00    +0.000 A 
ATOM      7  C   UNL     1      24.424  40.815  44.592  0.00  0.00    +0.000 A 
ATOM      8  C   UNL     1      24.807  40.090  45.729  0.00  0.00    +0.000 A 
BRANCH   3   9
ATOM      9  O   UNL     1      21.371  38.958  43.658  0.00  0.00    +0.000 OA
BRANCH   9  12
ATOM     10 BR   UNL     1      18.530  37.804  43.938  0.00  0.00    +0.000 Br
ATOM     11  C   UNL     1      19.064  39.582  43.543  0.00  0.00    +0.000 A 
ATOM     12  C   UNL     1      20.415  39.946  43.481  0.00  0.00    +0.000 A 
ATOM     13  C   UNL     1      18.062  40.533  43.316  0.00  0.00    +0.000 A 
ATOM     14  C   UNL     1      20.741  41.296  43.278  0.00  0.00    +0.000 A 
ATOM     15  C   UNL     1      18.404  41.858  43.043  0.00  0.00    +0.000 A 
ATOM     16  C   UNL     1      19.741  42.242  43.035  0.00  0.00    +0.000 A 
ENDBRANCH   9  12
ENDBRANCH   3   9
ENDBRANCH   1   8
BRANCH   2  17
ATOM     17  N   UNL     1      24.311  42.267  47.973  0.00  0.00    +0.000 N 
ATOM     18  C   UNL     1      23.131  41.685  48.405  0.00  0.00    +0.000 C 
ATOM     19  O   UNL     1      22.966  40.476  48.549  0.00  0.00    +0.000 OA
ATOM     20  H   UNL     1      24.320  43.244  47.851  0.00  0.00    +0.000 HD
BRANCH  18  21
ATOM     21  C   UNL     1      21.981  42.668  48.570  0.00  0.00    +0.000 C 
BRANCH  21  22
ATOM     22  C   UNL     1      20.666  42.221  47.978  0.00  0.00    +0.000 A 
ATOM     23  C   UNL     1      20.608  41.007  47.273  0.00  0.00    +0.000 A 
ATOM     24  C   UNL     1      19.477  42.931  48.195  0.00  0.00    +0.000 A 
ATOM     25  C   UNL     1      19.395  40.531  46.770  0.00  0.00    +0.000 A 
ATOM     26  C   UNL     1      18.262  42.456  47.691  0.00  0.00    +0.000 A 
ATOM     27  C   UNL     1      18.228  41.260  46.978  0.00  0.00    +0.000 A 
ATOM     28 BR   UNL     1      16.584  40.614  46.304  0.00  0.00    +0.000 Br
ENDBRANCH  21  22
ENDBRANCH  18  21
ENDBRANCH   2  17
BRANCH   2  29
ATOM     29  C   UNL     1      26.626  41.773  48.649  0.00  0.00    +0.000 C 
ATOM     30  O   UNL     1      27.697  41.191  48.600  0.00  0.00    +0.000 OA
ATOM     31  OXT UNL     1      26.315  42.682  49.603  0.00  0.00    +0.000 OA
ENDBRANCH   2  29
TORSDOF 7
ENDMDL
MODEL 4
REMARK VINA RESULT:      -4.6      2.178      4.560
REMARK  Name = 321366
REMARK  7 active torsions:
REMARK  status: ('A' for Active; 'I' for Inactive)
REMARK    1  A    between atoms: C_3  and  O_5
REMARK    2  A    between atoms: O_5  and  C_8
REMARK    3  A    between atoms: C_14  and  C_15
REMARK    4  A    between atoms: CA_16  and  N_17
REMARK    5  A    between atoms: CA_16  and  C_18
REMARK    6  A    between atoms: C_19  and  C_23
REMARK    7  A    between atoms: C_23  and  C_24
REMARK                            x       y       z     vdW  Elec       q    Type
REMARK                         _______ _______ _______ _____ _____    ______ ____
ROOT
ATOM      1  C   UNL     1      22.266  42.547  49.110  0.00  0.00    +0.000 C 
ATOM      2  CA  UNL     1      23.539  42.177  48.893  0.00  0.00    +0.000 C 
ENDROOT
BRANCH   1   8
ATOM      3  C   UNL     1      18.614  41.623  47.184  0.00  0.00    +0.000 A 
ATOM      4  C   UNL     1      19.798  41.063  46.709  0.00  0.00    +0.000 A 
ATOM      5  C   UNL     1      18.662  42.681  48.094  0.00  0.00    +0.000 A 
ATOM      6  C   UNL     1      21.025  41.453  47.256  0.00  0.00    +0.000 A 
ATOM      7  C   UNL     1      19.885  43.055  48.658  0.00  0.00    +0.000 A 
ATOM      8  C   UNL     1      21.067  42.407  48.275  0.00  0.00    +0.000 A 
BRANCH   3   9
ATOM      9  O   UNL     1      17.430  41.080  46.732  0.00  0.00    +0.000 OA
BRANCH   9  12
ATOM     10 BR   UNL     1      16.926  38.223  45.700  0.00  0.00    +0.000 Br
ATOM     11  C   UNL     1      16.963  39.854  44.731  0.00  0.00    +0.000 A 
ATOM     12  C   UNL     1      17.181  41.082  45.369  0.00  0.00    +0.000 A 
ATOM     13  C   UNL     1      16.762  39.800  43.346  0.00  0.00    +0.000 A 
ATOM     14  C   UNL     1      17.103  42.260  44.609  0.00  0.00    +0.000 A 
ATOM     15  C   UNL     1      16.760  40.974  42.593  0.00  0.00    +0.000 A 
ATOM     16  C   UNL     1      16.918  42.204  43.224  0.00  0.00    +0.000 A 
ENDBRANCH   9  12
ENDBRANCH   3   9
ENDBRANCH   1   8
BRANCH   2  17
ATOM     17  N   UNL     1      24.040  41.396  47.867  0.00  0.00    +0.000 N 
ATOM     18  C   UNL     1      25.367  41.024  47.732  0.00  0.00    +0.000 C 
ATOM     19  O   UNL     1      26.269  41.386  48.483  0.00  0.00    +0.000 OA
ATOM     20  H   UNL     1      23.406  41.083  47.181  0.00  0.00    +0.000 HD
BRANCH  18  21
ATOM     21  C   UNL     1      25.658  40.216  46.475  0.00  0.00    +0.000 C 
BRANCH  21  22
ATOM     22  C   UNL     1      24.469  39.982  45.574  0.00  0.00    +0.000 A 
ATOM     23  C   UNL     1      23.803  38.746  45.624  0.00  0.00    +0.000 A 
ATOM     24  C   UNL     1      23.946  40.997  44.760  0.00  0.00    +0.000 A 
ATOM     25  C   UNL     1      22.660  38.519  44.853  0.00  0.00    +0.000 A 
ATOM     26  C   UNL     1      22.802  40.771  43.987  0.00  0.00    +0.000 A 
ATOM     27  C   UNL     1      22.167  39.532  44.035  0.00  0.00    +0.000 A 
ATOM     28 BR   UNL     1      20.617  39.230  42.997  0.00  0.00    +0.000 Br
ENDBRANCH  21  22
ENDBRANCH  18  21
ENDBRANCH   2  17
BRANCH   2  29
ATOM     29  C   UNL     1      24.532  42.732  49.874  0.00  0.00    +0.000 C 
ATOM     30  O   UNL     1      25.452  43.488  49.604  0.00  0.00    +0.000 OA
ATOM     31  OXT UNL     1      24.291  42.269  51.123  0.00  0.00    +0.000 OA
ENDBRANCH   2  29
TORSDOF 7
ENDMDL
MODEL 5
REMARK VINA RESULT:      -4.6      1.543      3.807
REMARK  Name = 321366
REMARK  7 active torsions:
REMARK  status: ('A' for Active; 'I' for Inactive)
REMARK    1  A    between atoms: C_3  and  O_5
REMARK    2  A    between atoms: O_5  and  C_8
REMARK    3  A    between atoms: C_14  and  C_15
REMARK    4  A    between atoms: CA_16  and  N_17
REMARK    5  A    between atoms: CA_16  and  C_18
REMARK    6  A    between atoms: C_19  and  C_23
REMARK    7  A    between atoms: C_23  and  C_24
REMARK                            x       y       z     vdW  Elec       q    Type
REMARK                         _______ _______ _______ _____ _____    ______ ____
ROOT
ATOM      1  C   UNL     1      23.614  42.009  47.844  0.00  0.00    +0.000 C 
ATOM      2  CA  UNL     1      24.319  41.297  46.948  0.00  0.00    +0.000 C 
ENDROOT
BRANCH   1   8
ATOM      3  C   UNL     1      19.444  42.705  47.685  0.00  0.00    +0.000 A 
ATOM      4  C   UNL     1      20.206  42.853  46.528  0.00  0.00    +0.000 A 
ATOM      5  C   UNL     1      20.077  42.603  48.925  0.00  0.00    +0.000 A 
ATOM      6  C   UNL     1      21.599  42.747  46.590  0.00  0.00    +0.000 A 
ATOM      7  C   UNL     1      21.467  42.473  48.986  0.00  0.00    +0.000 A 
ATOM      8  C   UNL     1      22.230  42.496  47.811  0.00  0.00    +0.000 A 
BRANCH   3   9
ATOM      9  O   UNL     1      18.074  42.648  47.538  0.00  0.00    +0.000 OA
BRANCH   9  12
ATOM     10 BR   UNL     1      16.766  43.359  44.843  0.00  0.00    +0.000 Br
ATOM     11  C   UNL     1      16.854  41.679  45.722  0.00  0.00    +0.000 A 
ATOM     12  C   UNL     1      17.520  41.524  46.944  0.00  0.00    +0.000 A 
ATOM     13  C   UNL     1      16.231  40.584  45.111  0.00  0.00    +0.000 A 
ATOM     14  C   UNL     1      17.630  40.238  47.495  0.00  0.00    +0.000 A 
ATOM     15  C   UNL     1      16.286  39.324  45.708  0.00  0.00    +0.000 A 
ATOM     16  C   UNL     1      16.994  39.149  46.892  0.00  0.00    +0.000 A 
ENDBRANCH   9  12
ENDBRANCH   3   9
ENDBRANCH   1   8
BRANCH   2  17
ATOM     17  N   UNL     1      23.863  40.676  45.799  0.00  0.00    +0.000 N 
ATOM     18  C   UNL     1      23.463  39.353  45.721  0.00  0.00    +0.000 C 
ATOM     19  O   UNL     1      23.512  38.557  46.656  0.00  0.00    +0.000 OA
ATOM     20  H   UNL     1      23.821  41.214  44.976  0.00  0.00    +0.000 HD
BRANCH  18  21
ATOM     21  C   UNL     1      23.067  38.908  44.320  0.00  0.00    +0.000 C 
BRANCH  21  22
ATOM     22  C   UNL     1      21.791  39.515  43.791  0.00  0.00    +0.000 A 
ATOM     23  C   UNL     1      20.587  38.804  43.920  0.00  0.00    +0.000 A 
ATOM     24  C   UNL     1      21.752  40.814  43.264  0.00  0.00    +0.000 A 
ATOM     25  C   UNL     1      19.377  39.364  43.502  0.00  0.00    +0.000 A 
ATOM     26  C   UNL     1      20.542  41.376  42.844  0.00  0.00    +0.000 A 
ATOM     27  C   UNL     1      19.362  40.647  42.962  0.00  0.00    +0.000 A 
ATOM     28 BR   UNL     1      17.726  41.411  42.402  0.00  0.00    +0.000 Br
ENDBRANCH  21  22
ENDBRANCH  18  21
ENDBRANCH   2  17
BRANCH   2  29
ATOM     29  C   UNL     1      25.793  41.219  47.226  0.00  0.00    +0.000 C 
ATOM     30  O   UNL     1      26.374  41.773  48.145  0.00  0.00    +0.000 OA
ATOM     31  OXT UNL     1      26.422  40.456  46.300  0.00  0.00    +0.000 OA
ENDBRANCH   2  29
TORSDOF 7
ENDMDL
MODEL 6
REMARK VINA RESULT:      -4.4      3.511      7.417
REMARK  Name = 321366
REMARK  7 active torsions:
REMARK  status: ('A' for Active; 'I' for Inactive)
REMARK    1  A    between atoms: C_3  and  O_5
REMARK    2  A    between atoms: O_5  and  C_8
REMARK    3  A    between atoms: C_14  and  C_15
REMARK    4  A    between atoms: CA_16  and  N_17
REMARK    5  A    between atoms: CA_16  and  C_18
REMARK    6  A    between atoms: C_19  and  C_23
REMARK    7  A    between atoms: C_23  and  C_24
REMARK                            x       y       z     vdW  Elec       q    Type
REMARK                         _______ _______ _______ _____ _____    ______ ____
ROOT
ATOM      1  C   UNL     1      18.786  43.386  46.169  0.00  0.00    +0.000 C 
ATOM      2  CA  UNL     1      17.569  43.166  45.644  0.00  0.00    +0.000 C 
ENDROOT
BRANCH   1   8
ATOM      3  C   UNL     1      22.147  41.077  47.298  0.00  0.00    +0.000 A 
ATOM      4  C   UNL     1      22.339  42.268  46.601  0.00  0.00    +0.000 A 
ATOM      5  C   UNL     1      20.871  40.516  47.376  0.00  0.00    +0.000 A 
ATOM      6  C   UNL     1      21.237  42.979  46.115  0.00  0.00    +0.000 A 
ATOM      7  C   UNL     1      19.767  41.237  46.912  0.00  0.00    +0.000 A 
ATOM      8  C   UNL     1      19.943  42.496  46.322  0.00  0.00    +0.000 A 
BRANCH   3   9
ATOM      9  O   UNL     1      23.250  40.510  47.900  0.00  0.00    +0.000 OA
BRANCH   9  12
ATOM     10 BR   UNL     1      25.888  40.566  46.312  0.00  0.00    +0.000 Br
ATOM     11  C   UNL     1      25.445  41.462  47.925  0.00  0.00    +0.000 A 
ATOM     12  C   UNL     1      24.175  41.347  48.504  0.00  0.00    +0.000 A 
ATOM     13  C   UNL     1      26.431  42.253  48.529  0.00  0.00    +0.000 A 
ATOM     14  C   UNL     1      23.882  42.110  49.646  0.00  0.00    +0.000 A 
ATOM     15  C   UNL     1      26.147  42.948  49.705  0.00  0.00    +0.000 A 
ATOM     16  C   UNL     1      24.871  42.886  50.256  0.00  0.00    +0.000 A 
ENDBRANCH   9  12
ENDBRANCH   3   9
ENDBRANCH   1   8
BRANCH   2  17
ATOM     17  N   UNL     1      17.129  42.060  44.938  0.00  0.00    +0.000 N 
ATOM     18  C   UNL     1      17.614  41.667  43.702  0.00  0.00    +0.000 C 
ATOM     19  O   UNL     1      18.462  42.284  43.061  0.00  0.00    +0.000 OA
ATOM     20  H   UNL     1      16.418  41.514  45.343  0.00  0.00    +0.000 HD
BRANCH  18  21
ATOM     21  C   UNL     1      16.908  40.451  43.119  0.00  0.00    +0.000 C 
BRANCH  21  22
ATOM     22  C   UNL     1      17.017  39.191  43.943  0.00  0.00    +0.000 A 
ATOM     23  C   UNL     1      16.143  39.001  45.026  0.00  0.00    +0.000 A 
ATOM     24  C   UNL     1      17.898  38.155  43.599  0.00  0.00    +0.000 A 
ATOM     25  C   UNL     1      16.172  37.818  45.769  0.00  0.00    +0.000 A 
ATOM     26  C   UNL     1      17.928  36.971  44.342  0.00  0.00    +0.000 A 
ATOM     27  C   UNL     1      17.068  36.809  45.425  0.00  0.00    +0.000 A 
ATOM     28 BR   UNL     1      17.103  35.204  46.423  0.00  0.00    +0.000 Br
ENDBRANCH  21  22
ENDBRANCH  18  21
ENDBRANCH   2  17
BRANCH   2  29
ATOM     29  C   UNL     1      16.563  44.249  45.909  0.00  0.00    +0.000 C 
ATOM     30  O   UNL     1      16.242  44.667  47.010  0.00  0.00    +0.000 OA
ATOM     31  OXT UNL     1      16.028  44.708  44.753  0.00  0.00    +0.000 OA
ENDBRANCH   2  29
TORSDOF 7
ENDMDL
MODEL 7
REMARK VINA RESULT:      -3.8      3.381      7.089
REMARK  Name = 321366
REMARK  7 active torsions:
REMARK  status: ('A' for Active; 'I' for Inactive)
REMARK    1  A    between atoms: C_3  and  O_5
REMARK    2  A    between atoms: O_5  and  C_8
REMARK    3  A    between atoms: C_14  and  C_15
REMARK    4  A    between atoms: CA_16  and  N_17
REMARK    5  A    between atoms: CA_16  and  C_18
REMARK    6  A    between atoms: C_19  and  C_23
REMARK    7  A    between atoms: C_23  and  C_24
REMARK                            x       y       z     vdW  Elec       q    Type
REMARK                         _______ _______ _______ _____ _____    ______ ____
ROOT
ATOM      1  C   UNL     1      17.809  42.257  44.142  0.00  0.00    +0.000 C 
ATOM      2  CA  UNL     1      17.964  41.279  43.234  0.00  0.00    +0.000 C 
ENDROOT
BRANCH   1   8
ATOM      3  C   UNL     1      20.681  42.941  47.173  0.00  0.00    +0.000 A 
ATOM      4  C   UNL     1      19.390  42.556  47.530  0.00  0.00    +0.000 A 
ATOM      5  C   UNL     1      20.945  43.362  45.868  0.00  0.00    +0.000 A 
ATOM      6  C   UNL     1      18.398  42.446  46.550  0.00  0.00    +0.000 A 
ATOM      7  C   UNL     1      19.962  43.230  44.884  0.00  0.00    +0.000 A 
ATOM      8  C   UNL     1      18.697  42.724  45.214  0.00  0.00    +0.000 A 
BRANCH   3   9
ATOM      9  O   UNL     1      21.655  42.868  48.146  0.00  0.00    +0.000 OA
BRANCH   9  12
ATOM     10 BR   UNL     1      24.113  43.265  49.958  0.00  0.00    +0.000 Br
ATOM     11  C   UNL     1      23.545  41.704  49.040  0.00  0.00    +0.000 A 
ATOM     12  C   UNL     1      22.373  41.689  48.273  0.00  0.00    +0.000 A 
ATOM     13  C   UNL     1      24.334  40.553  49.153  0.00  0.00    +0.000 A 
ATOM     14  C   UNL     1      21.960  40.477  47.697  0.00  0.00    +0.000 A 
ATOM     15  C   UNL     1      23.947  39.374  48.514  0.00  0.00    +0.000 A 
ATOM     16  C   UNL     1      22.755  39.333  47.797  0.00  0.00    +0.000 A 
ENDBRANCH   9  12
ENDBRANCH   3   9
ENDBRANCH   1   8
BRANCH   2  17
ATOM     17  N   UNL     1      19.102  40.543  42.954  0.00  0.00    +0.000 N 
ATOM     18  C   UNL     1      19.573  39.493  43.723  0.00  0.00    +0.000 C 
ATOM     19  O   UNL     1      19.061  39.120  44.777  0.00  0.00    +0.000 OA
ATOM     20  H   UNL     1      19.615  40.786  42.150  0.00  0.00    +0.000 HD
BRANCH  18  21
ATOM     21  C   UNL     1      20.882  38.899  43.223  0.00  0.00    +0.000 C 
BRANCH  21  22
ATOM     22  C   UNL     1      22.117  39.365  43.955  0.00  0.00    +0.000 A 
ATOM     23  C   UNL     1      23.015  38.412  44.462  0.00  0.00    +0.000 A 
ATOM     24  C   UNL     1      22.450  40.724  44.056  0.00  0.00    +0.000 A 
ATOM     25  C   UNL     1      24.202  38.808  45.086  0.00  0.00    +0.000 A 
ATOM     26  C   UNL     1      23.636  41.122  44.680  0.00  0.00    +0.000 A 
ATOM     27  C   UNL     1      24.504  40.163  45.195  0.00  0.00    +0.000 A 
ATOM     28 BR   UNL     1      26.111  40.701  46.031  0.00  0.00    +0.000 Br
ENDBRANCH  21  22
ENDBRANCH  18  21
ENDBRANCH   2  17
BRANCH   2  29
ATOM     29  C   UNL     1      16.719  40.926  42.471  0.00  0.00    +0.000 C 
ATOM     30  O   UNL     1      16.268  41.544  41.520  0.00  0.00    +0.000 OA
ATOM     31  OXT UNL     1      16.130  39.821  42.987  0.00  0.00    +0.000 OA
ENDBRANCH   2  29
TORSDOF 7
ENDMDL
MODEL 8
REMARK VINA RESULT:      -3.7      2.891      6.155
REMARK  Name = 321366
REMARK  7 active torsions:
REMARK  status: ('A' for Active; 'I' for Inactive)
REMARK    1  A    between atoms: C_3  and  O_5
REMARK    2  A    between atoms: O_5  and  C_8
REMARK    3  A    between atoms: C_14  and  C_15
REMARK    4  A    between atoms: CA_16  and  N_17
REMARK    5  A    between atoms: CA_16  and  C_18
REMARK    6  A    between atoms: C_19  and  C_23
REMARK    7  A    between atoms: C_23  and  C_24
REMARK                            x       y       z     vdW  Elec       q    Type
REMARK                         _______ _______ _______ _____ _____    ______ ____
ROOT
ATOM      1  C   UNL     1      19.929  40.252  43.152  0.00  0.00    +0.000 C 
ATOM      2  CA  UNL     1      18.696  40.423  43.655  0.00  0.00    +0.000 C 
ENDROOT
BRANCH   1   8
ATOM      3  C   UNL     1      23.391  40.343  45.583  0.00  0.00    +0.000 A 
ATOM      4  C   UNL     1      22.694  41.525  45.342  0.00  0.00    +0.000 A 
ATOM      5  C   UNL     1      23.119  39.207  44.817  0.00  0.00    +0.000 A 
ATOM      6  C   UNL     1      21.622  41.534  44.444  0.00  0.00    +0.000 A 
ATOM      7  C   UNL     1      22.033  39.209  43.937  0.00  0.00    +0.000 A 
ATOM      8  C   UNL     1      21.250  40.361  43.783  0.00  0.00    +0.000 A 
BRANCH   3   9
ATOM      9  O   UNL     1      24.322  40.352  46.600  0.00  0.00    +0.000 OA
BRANCH   9  12
ATOM     10 BR   UNL     1      26.986  41.393  47.742  0.00  0.00    +0.000 Br
ATOM     11  C   UNL     1      25.217  41.721  48.347  0.00  0.00    +0.000 A 
ATOM     12  C   UNL     1      24.104  41.185  47.686  0.00  0.00    +0.000 A 
ATOM     13  C   UNL     1      25.049  42.522  49.482  0.00  0.00    +0.000 A 
ATOM     14  C   UNL     1      22.820  41.542  48.129  0.00  0.00    +0.000 A 
ATOM     15  C   UNL     1      23.768  42.809  49.954  0.00  0.00    +0.000 A 
ATOM     16  C   UNL     1      22.654  42.329  49.271  0.00  0.00    +0.000 A 
ENDBRANCH   9  12
ENDBRANCH   3   9
ENDBRANCH   1   8
BRANCH   2  17
ATOM     17  N   UNL     1      18.326  40.588  44.978  0.00  0.00    +0.000 N 
ATOM     18  C   UNL     1      18.007  39.556  45.844  0.00  0.00    +0.000 C 
ATOM     19  O   UNL     1      17.965  38.370  45.525  0.00  0.00    +0.000 OA
ATOM     20  H   UNL     1      18.286  41.507  45.329  0.00  0.00    +0.000 HD
BRANCH  18  21
ATOM     21  C   UNL     1      17.572  40.021  47.227  0.00  0.00    +0.000 C 
BRANCH  21  22
ATOM     22  C   UNL     1      17.646  41.511  47.454  0.00  0.00    +0.000 A 
ATOM     23  C   UNL     1      18.793  42.058  48.053  0.00  0.00    +0.000 A 
ATOM     24  C   UNL     1      16.647  42.381  46.994  0.00  0.00    +0.000 A 
ATOM     25  C   UNL     1      18.924  43.439  48.218  0.00  0.00    +0.000 A 
ATOM     26  C   UNL     1      16.776  43.763  47.160  0.00  0.00    +0.000 A 
ATOM     27  C   UNL     1      17.911  44.285  47.773  0.00  0.00    +0.000 A 
ATOM     28 BR   UNL     1      18.089  46.155  47.988  0.00  0.00    +0.000 Br
ENDBRANCH  21  22
ENDBRANCH  18  21
ENDBRANCH   2  17
BRANCH   2  29
ATOM     29  C   UNL     1      17.600  40.486  42.629  0.00  0.00    +0.000 C 
ATOM     30  O   UNL     1      17.515  41.306  41.729  0.00  0.00    +0.000 OA
ATOM     31  OXT UNL     1      16.684  39.511  42.836  0.00  0.00    +0.000 OA
ENDBRANCH   2  29
TORSDOF 7
ENDMDL
