MODEL 1
REMARK VINA RESULT:      -8.2      0.000      0.000
REMARK  Name = 321671
REMARK  6 active torsions:
REMARK  status: ('A' for Active; 'I' for Inactive)
REMARK    1  A    between atoms: C_3  and  O_5
REMARK    2  A    between atoms: O_5  and  C_8
REMARK    3  A    between atoms: C_14  and  C_15
REMARK    4  A    between atoms: CA_16  and  N_17
REMARK    5  A    between atoms: CA_16  and  C_18
REMARK    6  A    between atoms: C_19  and  C_23
REMARK                            x       y       z     vdW  Elec       q    Type
REMARK                         _______ _______ _______ _____ _____    ______ ____
ROOT
ATOM      1  C   UNL     1      20.195  41.897  43.324  0.00  0.00    +0.000 C 
ATOM      2  CA  UNL     1      18.883  42.174  43.400  0.00  0.00    +0.000 C 
ENDROOT
BRANCH   1   8
ATOM      3  C   UNL     1      22.415  40.961  46.816  0.00  0.00    +0.000 A 
ATOM      4  C   UNL     1      22.069  42.289  46.568  0.00  0.00    +0.000 A 
ATOM      5  C   UNL     1      22.250  39.997  45.817  0.00  0.00    +0.000 A 
ATOM      6  C   UNL     1      21.412  42.624  45.377  0.00  0.00    +0.000 A 
ATOM      7  C   UNL     1      21.576  40.326  44.640  0.00  0.00    +0.000 A 
ATOM      8  C   UNL     1      21.113  41.631  44.436  0.00  0.00    +0.000 A 
BRANCH   3   9
ATOM      9  O   UNL     1      22.881  40.645  48.076  0.00  0.00    +0.000 OA
BRANCH   9  12
ATOM     10 BR   UNL     1      25.584  40.525  46.573  0.00  0.00    +0.000 Br
ATOM     11  C   UNL     1      25.110  41.533  48.109  0.00  0.00    +0.000 A 
ATOM     12  C   UNL     1      23.815  41.498  48.642  0.00  0.00    +0.000 A 
ATOM     13  C   UNL     1      26.096  42.330  48.706  0.00  0.00    +0.000 A 
ATOM     14  C   UNL     1      23.506  42.345  49.717  0.00  0.00    +0.000 A 
ATOM     15  C   UNL     1      25.796  43.105  49.825  0.00  0.00    +0.000 A 
ATOM     16  C   UNL     1      24.495  43.124  50.322  0.00  0.00    +0.000 A 
ENDBRANCH   9  12
ENDBRANCH   3   9
ENDBRANCH   1   8
BRANCH   2  17
ATOM     17  N   UNL     1      18.175  42.149  44.592  0.00  0.00    +0.000 N 
ATOM     18  C   UNL     1      17.479  40.999  44.938  0.00  0.00    +0.000 C 
ATOM     19  O   UNL     1      17.331  40.076  44.139  0.00  0.00    +0.000 OA
ATOM     20  H   UNL     1      18.166  42.935  45.184  0.00  0.00    +0.000 HD
BRANCH  18  21
ATOM     21  C   UNL     1      16.792  41.062  46.304  0.00  0.00    +0.000 C 
ATOM     22  C   UNL     1      16.619  42.506  46.783  0.00  0.00    +0.000 C 
ATOM     23  C   UNL     1      17.556  40.259  47.366  0.00  0.00    +0.000 C 
ATOM     24  C   UNL     1      17.970  43.164  47.050  0.00  0.00    +0.000 C 
ATOM     25  C   UNL     1      18.905  40.889  47.728  0.00  0.00    +0.000 C 
ATOM     26  C   UNL     1      18.803  42.377  48.057  0.00  0.00    +0.000 C 
ENDBRANCH  18  21
ENDBRANCH   2  17
BRANCH   2  27
ATOM     27  C   UNL     1      18.190  42.543  42.125  0.00  0.00    +0.000 C 
ATOM     28  O   UNL     1      17.378  41.835  41.553  0.00  0.00    +0.000 OA
ATOM     29  OXT UNL     1      18.603  43.737  41.645  0.00  0.00    +0.000 OA
ENDBRANCH   2  27
TORSDOF 6
ENDMDL
MODEL 2
REMARK VINA RESULT:      -7.7      1.535      2.089
REMARK  Name = 321671
REMARK  6 active torsions:
REMARK  status: ('A' for Active; 'I' for Inactive)
REMARK    1  A    between atoms: C_3  and  O_5
REMARK    2  A    between atoms: O_5  and  C_8
REMARK    3  A    between atoms: C_14  and  C_15
REMARK    4  A    between atoms: CA_16  and  N_17
REMARK    5  A    between atoms: CA_16  and  C_18
REMARK    6  A    between atoms: C_19  and  C_23
REMARK                            x       y       z     vdW  Elec       q    Type
REMARK                         _______ _______ _______ _____ _____    ______ ____
ROOT
ATOM      1  C   UNL     1      19.405  41.209  43.211  0.00  0.00    +0.000 C 
ATOM      2  CA  UNL     1      18.078  41.220  43.427  0.00  0.00    +0.000 C 
ENDROOT
BRANCH   1   8
ATOM      3  C   UNL     1      22.102  41.753  46.440  0.00  0.00    +0.000 A 
ATOM      4  C   UNL     1      21.562  42.873  45.811  0.00  0.00    +0.000 A 
ATOM      5  C   UNL     1      21.952  40.488  45.864  0.00  0.00    +0.000 A 
ATOM      6  C   UNL     1      20.738  42.711  44.689  0.00  0.00    +0.000 A 
ATOM      7  C   UNL     1      21.114  40.323  44.760  0.00  0.00    +0.000 A 
ATOM      8  C   UNL     1      20.467  41.429  44.197  0.00  0.00    +0.000 A 
BRANCH   3   9
ATOM      9  O   UNL     1      22.742  41.941  47.648  0.00  0.00    +0.000 OA
BRANCH   9  12
ATOM     10 BR   UNL     1      24.000  42.955  50.287  0.00  0.00    +0.000 Br
ATOM     11  C   UNL     1      24.837  42.119  48.804  0.00  0.00    +0.000 A 
ATOM     12  C   UNL     1      24.104  41.683  47.693  0.00  0.00    +0.000 A 
ATOM     13  C   UNL     1      26.226  41.939  48.845  0.00  0.00    +0.000 A 
ATOM     14  C   UNL     1      24.771  40.983  46.678  0.00  0.00    +0.000 A 
ATOM     15  C   UNL     1      26.889  41.313  47.790  0.00  0.00    +0.000 A 
ATOM     16  C   UNL     1      26.158  40.821  46.711  0.00  0.00    +0.000 A 
ENDBRANCH   9  12
ENDBRANCH   3   9
ENDBRANCH   1   8
BRANCH   2  17
ATOM     17  N   UNL     1      17.521  41.354  44.690  0.00  0.00    +0.000 N 
ATOM     18  C   UNL     1      17.087  42.605  45.105  0.00  0.00    +0.000 C 
ATOM     19  O   UNL     1      17.343  43.619  44.457  0.00  0.00    +0.000 OA
ATOM     20  H   UNL     1      17.436  40.574  45.283  0.00  0.00    +0.000 HD
BRANCH  18  21
ATOM     21  C   UNL     1      16.429  42.621  46.486  0.00  0.00    +0.000 C 
ATOM     22  C   UNL     1      16.780  43.893  47.264  0.00  0.00    +0.000 C 
ATOM     23  C   UNL     1      16.818  41.390  47.319  0.00  0.00    +0.000 C 
ATOM     24  C   UNL     1      18.269  43.945  47.594  0.00  0.00    +0.000 C 
ATOM     25  C   UNL     1      18.292  41.398  47.735  0.00  0.00    +0.000 C 
ATOM     26  C   UNL     1      18.729  42.716  48.372  0.00  0.00    +0.000 C 
ENDBRANCH  18  21
ENDBRANCH   2  17
BRANCH   2  27
ATOM     27  C   UNL     1      17.192  41.102  42.226  0.00  0.00    +0.000 C 
ATOM     28  O   UNL     1      17.342  41.737  41.195  0.00  0.00    +0.000 OA
ATOM     29  OXT UNL     1      16.169  40.243  42.426  0.00  0.00    +0.000 OA
ENDBRANCH   2  27
TORSDOF 6
ENDMDL
MODEL 3
REMARK VINA RESULT:      -7.6      1.506      2.151
REMARK  Name = 321671
REMARK  6 active torsions:
REMARK  status: ('A' for Active; 'I' for Inactive)
REMARK    1  A    between atoms: C_3  and  O_5
REMARK    2  A    between atoms: O_5  and  C_8
REMARK    3  A    between atoms: C_14  and  C_15
REMARK    4  A    between atoms: CA_16  and  N_17
REMARK    5  A    between atoms: CA_16  and  C_18
REMARK    6  A    between atoms: C_19  and  C_23
REMARK                            x       y       z     vdW  Elec       q    Type
REMARK                         _______ _______ _______ _____ _____    ______ ____
ROOT
ATOM      1  C   UNL     1      19.594  40.606  42.985  0.00  0.00    +0.000 C 
ATOM      2  CA  UNL     1      18.337  40.868  43.382  0.00  0.00    +0.000 C 
ENDROOT
BRANCH   1   8
ATOM      3  C   UNL     1      23.294  40.451  45.056  0.00  0.00    +0.000 A 
ATOM      4  C   UNL     1      22.867  39.331  44.344  0.00  0.00    +0.000 A 
ATOM      5  C   UNL     1      22.411  41.510  45.286  0.00  0.00    +0.000 A 
ATOM      6  C   UNL     1      21.609  39.337  43.728  0.00  0.00    +0.000 A 
ATOM      7  C   UNL     1      21.167  41.526  44.654  0.00  0.00    +0.000 A 
ATOM      8  C   UNL     1      20.781  40.460  43.834  0.00  0.00    +0.000 A 
BRANCH   3   9
ATOM      9  O   UNL     1      24.607  40.480  45.479  0.00  0.00    +0.000 OA
BRANCH   9  12
ATOM     10 BR   UNL     1      23.270  38.933  47.802  0.00  0.00    +0.000 Br
ATOM     11  C   UNL     1      24.298  40.527  47.858  0.00  0.00    +0.000 A 
ATOM     12  C   UNL     1      24.868  41.077  46.703  0.00  0.00    +0.000 A 
ATOM     13  C   UNL     1      24.482  41.151  49.099  0.00  0.00    +0.000 A 
ATOM     14  C   UNL     1      25.699  42.200  46.831  0.00  0.00    +0.000 A 
ATOM     15  C   UNL     1      25.245  42.313  49.199  0.00  0.00    +0.000 A 
ATOM     16  C   UNL     1      25.867  42.830  48.065  0.00  0.00    +0.000 A 
ENDBRANCH   9  12
ENDBRANCH   3   9
ENDBRANCH   1   8
BRANCH   2  17
ATOM     17  N   UNL     1      17.968  40.944  44.716  0.00  0.00    +0.000 N 
ATOM     18  C   UNL     1      17.186  42.010  45.139  0.00  0.00    +0.000 C 
ATOM     19  O   UNL     1      16.964  42.971  44.404  0.00  0.00    +0.000 OA
ATOM     20  H   UNL     1      18.256  40.252  45.354  0.00  0.00    +0.000 HD
BRANCH  18  21
ATOM     21  C   UNL     1      16.784  41.955  46.614  0.00  0.00    +0.000 C 
ATOM     22  C   UNL     1      16.905  43.327  47.285  0.00  0.00    +0.000 C 
ATOM     23  C   UNL     1      17.618  40.930  47.396  0.00  0.00    +0.000 C 
ATOM     24  C   UNL     1      18.360  43.785  47.343  0.00  0.00    +0.000 C 
ATOM     25  C   UNL     1      19.084  41.347  47.544  0.00  0.00    +0.000 C 
ATOM     26  C   UNL     1      19.252  42.775  48.060  0.00  0.00    +0.000 C 
ENDBRANCH  18  21
ENDBRANCH   2  17
BRANCH   2  27
ATOM     27  C   UNL     1      17.321  41.104  42.308  0.00  0.00    +0.000 C 
ATOM     28  O   UNL     1      17.440  41.930  41.417  0.00  0.00    +0.000 OA
ATOM     29  OXT UNL     1      16.223  40.332  42.463  0.00  0.00    +0.000 OA
ENDBRANCH   2  27
TORSDOF 6
ENDMDL
MODEL 4
REMARK VINA RESULT:      -7.4      1.518      2.141
REMARK  Name = 321671
REMARK  6 active torsions:
REMARK  status: ('A' for Active; 'I' for Inactive)
REMARK    1  A    between atoms: C_3  and  O_5
REMARK    2  A    between atoms: O_5  and  C_8
REMARK    3  A    between atoms: C_14  and  C_15
REMARK    4  A    between atoms: CA_16  and  N_17
REMARK    5  A    between atoms: CA_16  and  C_18
REMARK    6  A    between atoms: C_19  and  C_23
REMARK                            x       y       z     vdW  Elec       q    Type
REMARK                         _______ _______ _______ _____ _____    ______ ____
ROOT
ATOM      1  C   UNL     1      19.635  42.246  43.794  0.00  0.00    +0.000 C 
ATOM      2  CA  UNL     1      18.426  41.720  44.054  0.00  0.00    +0.000 C 
ENDROOT
BRANCH   1   8
ATOM      3  C   UNL     1      22.960  41.234  46.228  0.00  0.00    +0.000 A 
ATOM      4  C   UNL     1      22.218  42.375  46.532  0.00  0.00    +0.000 A 
ATOM      5  C   UNL     1      22.764  40.579  45.008  0.00  0.00    +0.000 A 
ATOM      6  C   UNL     1      21.172  42.769  45.689  0.00  0.00    +0.000 A 
ATOM      7  C   UNL     1      21.708  40.958  44.179  0.00  0.00    +0.000 A 
ATOM      8  C   UNL     1      20.879  42.025  44.539  0.00  0.00    +0.000 A 
BRANCH   3   9
ATOM      9  O   UNL     1      23.846  40.772  47.179  0.00  0.00    +0.000 OA
BRANCH   9  12
ATOM     10 BR   UNL     1      26.745  41.840  47.005  0.00  0.00    +0.000 Br
ATOM     11  C   UNL     1      25.430  42.154  48.336  0.00  0.00    +0.000 A 
ATOM     12  C   UNL     1      24.140  41.616  48.239  0.00  0.00    +0.000 A 
ATOM     13  C   UNL     1      25.779  42.950  49.435  0.00  0.00    +0.000 A 
ATOM     14  C   UNL     1      23.188  41.970  49.206  0.00  0.00    +0.000 A 
ATOM     15  C   UNL     1      24.845  43.227  50.432  0.00  0.00    +0.000 A 
ATOM     16  C   UNL     1      23.543  42.749  50.309  0.00  0.00    +0.000 A 
ENDBRANCH   9  12
ENDBRANCH   3   9
ENDBRANCH   1   8
BRANCH   2  17
ATOM     17  N   UNL     1      18.211  40.782  45.052  0.00  0.00    +0.000 N 
ATOM     18  C   UNL     1      18.334  39.434  44.747  0.00  0.00    +0.000 C 
ATOM     19  O   UNL     1      18.453  39.049  43.584  0.00  0.00    +0.000 OA
ATOM     20  H   UNL     1      17.975  41.068  45.963  0.00  0.00    +0.000 HD
BRANCH  18  21
ATOM     21  C   UNL     1      18.141  38.494  45.939  0.00  0.00    +0.000 C 
ATOM     22  C   UNL     1      16.956  37.547  45.726  0.00  0.00    +0.000 C 
ATOM     23  C   UNL     1      17.946  39.268  47.251  0.00  0.00    +0.000 C 
ATOM     24  C   UNL     1      15.638  38.314  45.678  0.00  0.00    +0.000 C 
ATOM     25  C   UNL     1      16.615  40.024  47.301  0.00  0.00    +0.000 C 
ATOM     26  C   UNL     1      15.415  39.152  46.934  0.00  0.00    +0.000 C 
ENDBRANCH  18  21
ENDBRANCH   2  17
BRANCH   2  27
ATOM     27  C   UNL     1      17.280  42.208  43.224  0.00  0.00    +0.000 C 
ATOM     28  O   UNL     1      16.870  41.650  42.220  0.00  0.00    +0.000 OA
ATOM     29  OXT UNL     1      16.773  43.373  43.685  0.00  0.00    +0.000 OA
ENDBRANCH   2  27
TORSDOF 6
ENDMDL
MODEL 5
REMARK VINA RESULT:      -7.3      1.955      4.080
REMARK  Name = 321671
REMARK  6 active torsions:
REMARK  status: ('A' for Active; 'I' for Inactive)
REMARK    1  A    between atoms: C_3  and  O_5
REMARK    2  A    between atoms: O_5  and  C_8
REMARK    3  A    between atoms: C_14  and  C_15
REMARK    4  A    between atoms: CA_16  and  N_17
REMARK    5  A    between atoms: CA_16  and  C_18
REMARK    6  A    between atoms: C_19  and  C_23
REMARK                            x       y       z     vdW  Elec       q    Type
REMARK                         _______ _______ _______ _____ _____    ______ ____
ROOT
ATOM      1  C   UNL     1      17.660  40.176  47.345  0.00  0.00    +0.000 C 
ATOM      2  CA  UNL     1      17.036  39.628  46.288  0.00  0.00    +0.000 C 
ENDROOT
BRANCH   1   8
ATOM      3  C   UNL     1      21.425  42.067  47.840  0.00  0.00    +0.000 A 
ATOM      4  C   UNL     1      20.261  42.806  48.050  0.00  0.00    +0.000 A 
ATOM      5  C   UNL     1      21.353  40.805  47.242  0.00  0.00    +0.000 A 
ATOM      6  C   UNL     1      19.013  42.220  47.807  0.00  0.00    +0.000 A 
ATOM      7  C   UNL     1      20.109  40.213  47.020  0.00  0.00    +0.000 A 
ATOM      8  C   UNL     1      18.934  40.900  47.346  0.00  0.00    +0.000 A 
BRANCH   3   9
ATOM      9  O   UNL     1      22.617  42.609  48.274  0.00  0.00    +0.000 OA
BRANCH   9  12
ATOM     10 BR   UNL     1      24.864  43.026  50.361  0.00  0.00    +0.000 Br
ATOM     11  C   UNL     1      24.918  42.089  48.712  0.00  0.00    +0.000 A 
ATOM     12  C   UNL     1      23.785  41.964  47.898  0.00  0.00    +0.000 A 
ATOM     13  C   UNL     1      26.132  41.510  48.321  0.00  0.00    +0.000 A 
ATOM     14  C   UNL     1      23.869  41.172  46.743  0.00  0.00    +0.000 A 
ATOM     15  C   UNL     1      26.222  40.794  47.128  0.00  0.00    +0.000 A 
ATOM     16  C   UNL     1      25.084  40.612  46.346  0.00  0.00    +0.000 A 
ENDBRANCH   9  12
ENDBRANCH   3   9
ENDBRANCH   1   8
BRANCH   2  17
ATOM     17  N   UNL     1      17.493  39.768  44.987  0.00  0.00    +0.000 N 
ATOM     18  C   UNL     1      17.326  40.985  44.341  0.00  0.00    +0.000 C 
ATOM     19  O   UNL     1      16.632  41.877  44.826  0.00  0.00    +0.000 OA
ATOM     20  H   UNL     1      17.930  39.015  44.528  0.00  0.00    +0.000 HD
BRANCH  18  21
ATOM     21  C   UNL     1      17.929  41.044  42.936  0.00  0.00    +0.000 C 
ATOM     22  C   UNL     1      18.962  39.934  42.717  0.00  0.00    +0.000 C 
ATOM     23  C   UNL     1      18.576  42.406  42.647  0.00  0.00    +0.000 C 
ATOM     24  C   UNL     1      20.177  40.126  43.619  0.00  0.00    +0.000 C 
ATOM     25  C   UNL     1      19.838  42.651  43.479  0.00  0.00    +0.000 C 
ATOM     26  C   UNL     1      20.830  41.491  43.420  0.00  0.00    +0.000 C 
ENDBRANCH  18  21
ENDBRANCH   2  17
BRANCH   2  27
ATOM     27  C   UNL     1      15.807  38.820  46.567  0.00  0.00    +0.000 C 
ATOM     28  O   UNL     1      14.942  39.137  47.368  0.00  0.00    +0.000 OA
ATOM     29  OXT UNL     1      15.782  37.665  45.866  0.00  0.00    +0.000 OA
ENDBRANCH   2  27
TORSDOF 6
ENDMDL
MODEL 6
REMARK VINA RESULT:      -6.9      1.978      2.946
REMARK  Name = 321671
REMARK  6 active torsions:
REMARK  status: ('A' for Active; 'I' for Inactive)
REMARK    1  A    between atoms: C_3  and  O_5
REMARK    2  A    between atoms: O_5  and  C_8
REMARK    3  A    between atoms: C_14  and  C_15
REMARK    4  A    between atoms: CA_16  and  N_17
REMARK    5  A    between atoms: CA_16  and  C_18
REMARK    6  A    between atoms: C_19  and  C_23
REMARK                            x       y       z     vdW  Elec       q    Type
REMARK                         _______ _______ _______ _____ _____    ______ ____
ROOT
ATOM      1  C   UNL     1      18.716  43.436  46.195  0.00  0.00    +0.000 C 
ATOM      2  CA  UNL     1      17.593  43.194  45.499  0.00  0.00    +0.000 C 
ENDROOT
BRANCH   1   8
ATOM      3  C   UNL     1      22.106  41.075  47.161  0.00  0.00    +0.000 A 
ATOM      4  C   UNL     1      22.271  42.203  46.358  0.00  0.00    +0.000 A 
ATOM      5  C   UNL     1      20.822  40.595  47.437  0.00  0.00    +0.000 A 
ATOM      6  C   UNL     1      21.150  42.942  45.960  0.00  0.00    +0.000 A 
ATOM      7  C   UNL     1      19.706  41.344  47.059  0.00  0.00    +0.000 A 
ATOM      8  C   UNL     1      19.868  42.545  46.360  0.00  0.00    +0.000 A 
BRANCH   3   9
ATOM      9  O   UNL     1      23.240  40.492  47.690  0.00  0.00    +0.000 OA
BRANCH   9  12
ATOM     10 BR   UNL     1      25.965  40.624  46.230  0.00  0.00    +0.000 Br
ATOM     11  C   UNL     1      25.431  41.457  47.849  0.00  0.00    +0.000 A 
ATOM     12  C   UNL     1      24.131  41.321  48.353  0.00  0.00    +0.000 A 
ATOM     13  C   UNL     1      26.376  42.228  48.539  0.00  0.00    +0.000 A 
ATOM     14  C   UNL     1      23.774  42.045  49.500  0.00  0.00    +0.000 A 
ATOM     15  C   UNL     1      26.030  42.877  49.723  0.00  0.00    +0.000 A 
ATOM     16  C   UNL     1      24.722  42.798  50.196  0.00  0.00    +0.000 A 
ENDBRANCH   9  12
ENDBRANCH   3   9
ENDBRANCH   1   8
BRANCH   2  17
ATOM     17  N   UNL     1      17.412  42.052  44.733  0.00  0.00    +0.000 N 
ATOM     18  C   UNL     1      16.679  40.997  45.259  0.00  0.00    +0.000 C 
ATOM     19  O   UNL     1      16.341  40.980  46.442  0.00  0.00    +0.000 OA
ATOM     20  H   UNL     1      17.798  41.990  43.830  0.00  0.00    +0.000 HD
BRANCH  18  21
ATOM     21  C   UNL     1      16.488  39.819  44.302  0.00  0.00    +0.000 C 
ATOM     22  C   UNL     1      16.745  38.478  44.997  0.00  0.00    +0.000 C 
ATOM     23  C   UNL     1      17.391  39.935  43.065  0.00  0.00    +0.000 C 
ATOM     24  C   UNL     1      18.207  38.346  45.414  0.00  0.00    +0.000 C 
ATOM     25  C   UNL     1      18.876  39.758  43.397  0.00  0.00    +0.000 C 
ATOM     26  C   UNL     1      19.159  38.511  44.234  0.00  0.00    +0.000 C 
ENDBRANCH  18  21
ENDBRANCH   2  17
BRANCH   2  27
ATOM     27  C   UNL     1      16.500  44.212  45.595  0.00  0.00    +0.000 C 
ATOM     28  O   UNL     1      15.966  44.743  44.634  0.00  0.00    +0.000 OA
ATOM     29  OXT UNL     1      16.198  44.521  46.875  0.00  0.00    +0.000 OA
ENDBRANCH   2  27
TORSDOF 6
ENDMDL
MODEL 7
REMARK VINA RESULT:      -6.8      1.770      2.673
REMARK  Name = 321671
REMARK  6 active torsions:
REMARK  status: ('A' for Active; 'I' for Inactive)
REMARK    1  A    between atoms: C_3  and  O_5
REMARK    2  A    between atoms: O_5  and  C_8
REMARK    3  A    between atoms: C_14  and  C_15
REMARK    4  A    between atoms: CA_16  and  N_17
REMARK    5  A    between atoms: CA_16  and  C_18
REMARK    6  A    between atoms: C_19  and  C_23
REMARK                            x       y       z     vdW  Elec       q    Type
REMARK                         _______ _______ _______ _____ _____    ______ ____
ROOT
ATOM      1  C   UNL     1      19.978  41.115  43.282  0.00  0.00    +0.000 C 
ATOM      2  CA  UNL     1      18.691  40.931  43.624  0.00  0.00    +0.000 C 
ENDROOT
BRANCH   1   8
ATOM      3  C   UNL     1      23.664  40.650  45.330  0.00  0.00    +0.000 A 
ATOM      4  C   UNL     1      23.284  39.692  44.391  0.00  0.00    +0.000 A 
ATOM      5  C   UNL     1      22.741  41.606  45.766  0.00  0.00    +0.000 A 
ATOM      6  C   UNL     1      22.032  39.786  43.770  0.00  0.00    +0.000 A 
ATOM      7  C   UNL     1      21.503  41.713  45.132  0.00  0.00    +0.000 A 
ATOM      8  C   UNL     1      21.162  40.833  44.099  0.00  0.00    +0.000 A 
BRANCH   3   9
ATOM      9  O   UNL     1      24.972  40.633  45.771  0.00  0.00    +0.000 OA
BRANCH   9  12
ATOM     10 BR   UNL     1      23.579  39.277  48.178  0.00  0.00    +0.000 Br
ATOM     11  C   UNL     1      24.662  40.834  48.142  0.00  0.00    +0.000 A 
ATOM     12  C   UNL     1      25.252  41.293  46.957  0.00  0.00    +0.000 A 
ATOM     13  C   UNL     1      24.867  41.525  49.343  0.00  0.00    +0.000 A 
ATOM     14  C   UNL     1      26.122  42.392  47.020  0.00  0.00    +0.000 A 
ATOM     15  C   UNL     1      25.670  42.664  49.376  0.00  0.00    +0.000 A 
ATOM     16  C   UNL     1      26.311  43.089  48.214  0.00  0.00    +0.000 A 
ENDBRANCH   9  12
ENDBRANCH   3   9
ENDBRANCH   1   8
BRANCH   2  17
ATOM     17  N   UNL     1      18.305  40.335  44.814  0.00  0.00    +0.000 N 
ATOM     18  C   UNL     1      18.357  38.952  44.923  0.00  0.00    +0.000 C 
ATOM     19  O   UNL     1      18.567  38.241  43.942  0.00  0.00    +0.000 OA
ATOM     20  H   UNL     1      17.997  40.884  45.571  0.00  0.00    +0.000 HD
BRANCH  18  21
ATOM     21  C   UNL     1      17.973  38.411  46.302  0.00  0.00    +0.000 C 
ATOM     22  C   UNL     1      16.754  37.486  46.225  0.00  0.00    +0.000 C 
ATOM     23  C   UNL     1      17.693  39.541  47.302  0.00  0.00    +0.000 C 
ATOM     24  C   UNL     1      15.506  38.253  45.799  0.00  0.00    +0.000 C 
ATOM     25  C   UNL     1      16.421  40.326  46.970  0.00  0.00    +0.000 C 
ATOM     26  C   UNL     1      15.209  39.429  46.725  0.00  0.00    +0.000 C 
ENDBRANCH  18  21
ENDBRANCH   2  17
BRANCH   2  27
ATOM     27  C   UNL     1      17.655  41.425  42.662  0.00  0.00    +0.000 C 
ATOM     28  O   UNL     1      16.639  40.815  42.372  0.00  0.00    +0.000 OA
ATOM     29  OXT UNL     1      17.995  42.609  42.106  0.00  0.00    +0.000 OA
ENDBRANCH   2  27
TORSDOF 6
ENDMDL
MODEL 8
REMARK VINA RESULT:      -6.7      1.888      2.865
REMARK  Name = 321671
REMARK  6 active torsions:
REMARK  status: ('A' for Active; 'I' for Inactive)
REMARK    1  A    between atoms: C_3  and  O_5
REMARK    2  A    between atoms: O_5  and  C_8
REMARK    3  A    between atoms: C_14  and  C_15
REMARK    4  A    between atoms: CA_16  and  N_17
REMARK    5  A    between atoms: CA_16  and  C_18
REMARK    6  A    between atoms: C_19  and  C_23
REMARK                            x       y       z     vdW  Elec       q    Type
REMARK                         _______ _______ _______ _____ _____    ______ ____
ROOT
ATOM      1  C   UNL     1      21.141  39.334  43.756  0.00  0.00    +0.000 C 
ATOM      2  CA  UNL     1      19.976  39.806  44.233  0.00  0.00    +0.000 C 
ENDROOT
BRANCH   1   8
ATOM      3  C   UNL     1      24.789  40.035  45.805  0.00  0.00    +0.000 A 
ATOM      4  C   UNL     1      24.141  41.104  45.188  0.00  0.00    +0.000 A 
ATOM      5  C   UNL     1      24.377  38.724  45.546  0.00  0.00    +0.000 A 
ATOM      6  C   UNL     1      22.983  40.873  44.435  0.00  0.00    +0.000 A 
ATOM      7  C   UNL     1      23.210  38.496  44.815  0.00  0.00    +0.000 A 
ATOM      8  C   UNL     1      22.483  39.573  44.297  0.00  0.00    +0.000 A 
BRANCH   3   9
ATOM      9  O   UNL     1      25.806  40.326  46.691  0.00  0.00    +0.000 OA
BRANCH   9  12
ATOM     10 BR   UNL     1      23.371  39.379  48.349  0.00  0.00    +0.000 Br
ATOM     11  C   UNL     1      24.415  40.950  48.544  0.00  0.00    +0.000 A 
ATOM     12  C   UNL     1      25.520  41.207  47.722  0.00  0.00    +0.000 A 
ATOM     13  C   UNL     1      24.057  41.862  49.546  0.00  0.00    +0.000 A 
ATOM     14  C   UNL     1      26.308  42.337  47.986  0.00  0.00    +0.000 A 
ATOM     15  C   UNL     1      24.802  43.023  49.744  0.00  0.00    +0.000 A 
ATOM     16  C   UNL     1      25.938  43.254  48.973  0.00  0.00    +0.000 A 
ENDBRANCH   9  12
ENDBRANCH   3   9
ENDBRANCH   1   8
BRANCH   2  17
ATOM     17  N   UNL     1      19.882  40.536  45.408  0.00  0.00    +0.000 N 
ATOM     18  C   UNL     1      19.784  41.919  45.336  0.00  0.00    +0.000 C 
ATOM     19  O   UNL     1      19.955  42.517  44.275  0.00  0.00    +0.000 OA
ATOM     20  H   UNL     1      19.886  40.080  46.280  0.00  0.00    +0.000 HD
BRANCH  18  21
ATOM     21  C   UNL     1      19.619  42.613  46.689  0.00  0.00    +0.000 C 
ATOM     22  C   UNL     1      18.927  41.703  47.709  0.00  0.00    +0.000 C 
ATOM     23  C   UNL     1      18.837  43.928  46.565  0.00  0.00    +0.000 C 
ATOM     24  C   UNL     1      17.488  41.408  47.298  0.00  0.00    +0.000 C 
ATOM     25  C   UNL     1      17.364  43.711  46.206  0.00  0.00    +0.000 C 
ATOM     26  C   UNL     1      16.673  42.683  47.101  0.00  0.00    +0.000 C 
ENDBRANCH  18  21
ENDBRANCH   2  17
BRANCH   2  27
ATOM     27  C   UNL     1      18.748  39.530  43.422  0.00  0.00    +0.000 C 
ATOM     28  O   UNL     1      18.185  40.357  42.722  0.00  0.00    +0.000 OA
ATOM     29  OXT UNL     1      18.297  38.268  43.588  0.00  0.00    +0.000 OA
ENDBRANCH   2  27
TORSDOF 6
ENDMDL
MODEL 9
REMARK VINA RESULT:      -6.7      1.888      2.710
REMARK  Name = 321671
REMARK  6 active torsions:
REMARK  status: ('A' for Active; 'I' for Inactive)
REMARK    1  A    between atoms: C_3  and  O_5
REMARK    2  A    between atoms: O_5  and  C_8
REMARK    3  A    between atoms: C_14  and  C_15
REMARK    4  A    between atoms: CA_16  and  N_17
REMARK    5  A    between atoms: CA_16  and  C_18
REMARK    6  A    between atoms: C_19  and  C_23
REMARK                            x       y       z     vdW  Elec       q    Type
REMARK                         _______ _______ _______ _____ _____    ______ ____
ROOT
ATOM      1  C   UNL     1      19.220  41.886  43.533  0.00  0.00    +0.000 C 
ATOM      2  CA  UNL     1      18.114  41.131  43.647  0.00  0.00    +0.000 C 
ENDROOT
BRANCH   1   8
ATOM      3  C   UNL     1      21.968  42.127  46.756  0.00  0.00    +0.000 A 
ATOM      4  C   UNL     1      20.968  43.092  46.643  0.00  0.00    +0.000 A 
ATOM      5  C   UNL     1      22.212  41.246  45.698  0.00  0.00    +0.000 A 
ATOM      6  C   UNL     1      20.109  43.075  45.538  0.00  0.00    +0.000 A 
ATOM      7  C   UNL     1      21.342  41.214  44.608  0.00  0.00    +0.000 A 
ATOM      8  C   UNL     1      20.259  42.098  44.546  0.00  0.00    +0.000 A 
BRANCH   3   9
ATOM      9  O   UNL     1      22.663  42.059  47.947  0.00  0.00    +0.000 OA
BRANCH   9  12
ATOM     10 BR   UNL     1      24.196  43.197  50.382  0.00  0.00    +0.000 Br
ATOM     11  C   UNL     1      24.865  42.246  48.883  0.00  0.00    +0.000 A 
ATOM     12  C   UNL     1      24.016  41.764  47.878  0.00  0.00    +0.000 A 
ATOM     13  C   UNL     1      26.246  42.028  48.801  0.00  0.00    +0.000 A 
ATOM     14  C   UNL     1      24.564  40.983  46.850  0.00  0.00    +0.000 A 
ATOM     15  C   UNL     1      26.788  41.319  47.730  0.00  0.00    +0.000 A 
ATOM     16  C   UNL     1      25.943  40.782  46.761  0.00  0.00    +0.000 A 
ENDBRANCH   9  12
ENDBRANCH   3   9
ENDBRANCH   1   8
BRANCH   2  17
ATOM     17  N   UNL     1      17.850  40.344  44.758  0.00  0.00    +0.000 N 
ATOM     18  C   UNL     1      18.327  39.041  44.789  0.00  0.00    +0.000 C 
ATOM     19  O   UNL     1      18.820  38.516  43.792  0.00  0.00    +0.000 OA
ATOM     20  H   UNL     1      17.332  40.704  45.513  0.00  0.00    +0.000 HD
BRANCH  18  21
ATOM     21  C   UNL     1      18.033  38.290  46.089  0.00  0.00    +0.000 C 
ATOM     22  C   UNL     1      16.838  37.344  45.938  0.00  0.00    +0.000 C 
ATOM     23  C   UNL     1      17.779  39.251  47.259  0.00  0.00    +0.000 C 
ATOM     24  C   UNL     1      15.548  38.120  45.693  0.00  0.00    +0.000 C 
ATOM     25  C   UNL     1      16.469  40.031  47.112  0.00  0.00    +0.000 C 
ATOM     26  C   UNL     1      15.271  39.137  46.797  0.00  0.00    +0.000 C 
ENDBRANCH  18  21
ENDBRANCH   2  17
BRANCH   2  27
ATOM     27  C   UNL     1      17.135  41.183  42.516  0.00  0.00    +0.000 C 
ATOM     28  O   UNL     1      16.141  40.481  42.433  0.00  0.00    +0.000 OA
ATOM     29  OXT UNL     1      17.503  42.066  41.560  0.00  0.00    +0.000 OA
ENDBRANCH   2  27
TORSDOF 6
ENDMDL
