MODEL 1
REMARK VINA RESULT:      -8.4      0.000      0.000
REMARK  Name = 319810
REMARK  6 active torsions:
REMARK  status: ('A' for Active; 'I' for Inactive)
REMARK    1  A    between atoms: C_3  and  O_5
REMARK    2  A    between atoms: O_5  and  C_8
REMARK    3  A    between atoms: C_14  and  C_15
REMARK    4  A    between atoms: CA_16  and  N_17
REMARK    5  A    between atoms: CA_16  and  C_18
REMARK    6  A    between atoms: C_19  and  C_23
REMARK                            x       y       z     vdW  Elec       q    Type
REMARK                         _______ _______ _______ _____ _____    ______ ____
ROOT
ATOM      1  C   UNL     1      20.256  42.402  43.509  0.00  0.00    +0.000 C 
ATOM      2  CA  UNL     1      18.991  41.972  43.349  0.00  0.00    +0.000 C 
ENDROOT
BRANCH   1   8
ATOM      3  C   UNL     1      22.524  41.261  46.912  0.00  0.00    +0.000 A 
ATOM      4  C   UNL     1      21.903  42.510  46.894  0.00  0.00    +0.000 A 
ATOM      5  C   UNL     1      22.618  40.515  45.734  0.00  0.00    +0.000 A 
ATOM      6  C   UNL     1      21.241  42.941  45.737  0.00  0.00    +0.000 A 
ATOM      7  C   UNL     1      21.937  40.936  44.587  0.00  0.00    +0.000 A 
ATOM      8  C   UNL     1      21.204  42.129  44.598  0.00  0.00    +0.000 A 
BRANCH   3   9
ATOM      9  O   UNL     1      22.995  40.796  48.122  0.00  0.00    +0.000 OA
BRANCH   9  12
ATOM     10 BR   UNL     1      25.801  40.653  46.830  0.00  0.00    +0.000 Br
ATOM     11  C   UNL     1      25.240  41.601  48.374  0.00  0.00    +0.000 A 
ATOM     12  C   UNL     1      23.909  41.585  48.805  0.00  0.00    +0.000 A 
ATOM     13  C   UNL     1      26.203  42.331  49.084  0.00  0.00    +0.000 A 
ATOM     14  C   UNL     1      23.542  42.386  49.899  0.00  0.00    +0.000 A 
ATOM     15  C   UNL     1      25.838  43.063  50.215  0.00  0.00    +0.000 A 
ATOM     16  C   UNL     1      24.506  43.100  50.614  0.00  0.00    +0.000 A 
ENDBRANCH   9  12
ENDBRANCH   3   9
ENDBRANCH   1   8
BRANCH   2  17
ATOM     17  N   UNL     1      18.351  41.015  44.122  0.00  0.00    +0.000 N 
ATOM     18  C   UNL     1      18.622  39.667  43.952  0.00  0.00    +0.000 C 
ATOM     19  O   UNL     1      19.335  39.230  43.051  0.00  0.00    +0.000 OA
ATOM     20  H   UNL     1      17.695  41.297  44.801  0.00  0.00    +0.000 HD
BRANCH  18  21
ATOM     21  C   UNL     1      17.897  38.704  44.814  0.00  0.00    +0.000 A 
ATOM     22  C   UNL     1      17.162  39.230  45.885  0.00  0.00    +0.000 A 
ATOM     23  C   UNL     1      17.846  37.331  44.539  0.00  0.00    +0.000 A 
ATOM     24  C   UNL     1      16.367  38.394  46.653  0.00  0.00    +0.000 A 
ATOM     25  C   UNL     1      17.036  36.500  45.322  0.00  0.00    +0.000 A 
ATOM     26  F   UNL     1      15.651  38.908  47.660  0.00  0.00    +0.000 F 
ATOM     27  C   UNL     1      16.288  37.035  46.373  0.00  0.00    +0.000 A 
ENDBRANCH  18  21
ENDBRANCH   2  17
BRANCH   2  28
ATOM     28  C   UNL     1      18.233  42.598  42.217  0.00  0.00    +0.000 C 
ATOM     29  O   UNL     1      18.471  43.688  41.723  0.00  0.00    +0.000 OA
ATOM     30  OXT UNL     1      17.224  41.798  41.801  0.00  0.00    +0.000 OA
ENDBRANCH   2  28
TORSDOF 6
ENDMDL
MODEL 2
REMARK VINA RESULT:      -8.1      0.820      1.224
REMARK  Name = 319810
REMARK  6 active torsions:
REMARK  status: ('A' for Active; 'I' for Inactive)
REMARK    1  A    between atoms: C_3  and  O_5
REMARK    2  A    between atoms: O_5  and  C_8
REMARK    3  A    between atoms: C_14  and  C_15
REMARK    4  A    between atoms: CA_16  and  N_17
REMARK    5  A    between atoms: CA_16  and  C_18
REMARK    6  A    between atoms: C_19  and  C_23
REMARK                            x       y       z     vdW  Elec       q    Type
REMARK                         _______ _______ _______ _____ _____    ______ ____
ROOT
ATOM      1  C   UNL     1      20.335  42.437  43.406  0.00  0.00    +0.000 C 
ATOM      2  CA  UNL     1      19.014  42.203  43.304  0.00  0.00    +0.000 C 
ENDROOT
BRANCH   1   8
ATOM      3  C   UNL     1      22.492  41.247  46.863  0.00  0.00    +0.000 A 
ATOM      4  C   UNL     1      22.045  42.564  46.759  0.00  0.00    +0.000 A 
ATOM      5  C   UNL     1      22.462  40.413  45.743  0.00  0.00    +0.000 A 
ATOM      6  C   UNL     1      21.425  42.997  45.580  0.00  0.00    +0.000 A 
ATOM      7  C   UNL     1      21.823  40.839  44.574  0.00  0.00    +0.000 A 
ATOM      8  C   UNL     1      21.257  42.118  44.504  0.00  0.00    +0.000 A 
BRANCH   3   9
ATOM      9  O   UNL     1      22.919  40.810  48.101  0.00  0.00    +0.000 OA
BRANCH   9  12
ATOM     10 BR   UNL     1      25.706  40.628  46.773  0.00  0.00    +0.000 Br
ATOM     11  C   UNL     1      25.178  41.584  48.324  0.00  0.00    +0.000 A 
ATOM     12  C   UNL     1      23.852  41.586  48.772  0.00  0.00    +0.000 A 
ATOM     13  C   UNL     1      26.161  42.300  49.021  0.00  0.00    +0.000 A 
ATOM     14  C   UNL     1      23.511  42.392  49.870  0.00  0.00    +0.000 A 
ATOM     15  C   UNL     1      25.820  43.037  50.157  0.00  0.00    +0.000 A 
ATOM     16  C   UNL     1      24.494  43.093  50.573  0.00  0.00    +0.000 A 
ENDBRANCH   9  12
ENDBRANCH   3   9
ENDBRANCH   1   8
BRANCH   2  17
ATOM     17  N   UNL     1      18.252  41.436  44.173  0.00  0.00    +0.000 N 
ATOM     18  C   UNL     1      18.289  40.053  44.117  0.00  0.00    +0.000 C 
ATOM     19  O   UNL     1      18.884  39.427  43.243  0.00  0.00    +0.000 OA
ATOM     20  H   UNL     1      17.678  41.881  44.839  0.00  0.00    +0.000 HD
BRANCH  18  21
ATOM     21  C   UNL     1      17.445  39.302  45.077  0.00  0.00    +0.000 A 
ATOM     22  C   UNL     1      17.482  37.903  45.003  0.00  0.00    +0.000 A 
ATOM     23  C   UNL     1      16.709  39.929  46.090  0.00  0.00    +0.000 A 
ATOM     24  C   UNL     1      16.810  37.144  45.949  0.00  0.00    +0.000 A 
ATOM     25  C   UNL     1      16.038  39.149  47.040  0.00  0.00    +0.000 A 
ATOM     26  F   UNL     1      16.868  35.809  45.885  0.00  0.00    +0.000 F 
ATOM     27  C   UNL     1      16.098  37.755  46.974  0.00  0.00    +0.000 A 
ENDBRANCH  18  21
ENDBRANCH   2  17
BRANCH   2  28
ATOM     28  C   UNL     1      18.333  42.836  42.127  0.00  0.00    +0.000 C 
ATOM     29  O   UNL     1      18.555  43.956  41.700  0.00  0.00    +0.000 OA
ATOM     30  OXT UNL     1      17.414  42.002  41.586  0.00  0.00    +0.000 OA
ENDBRANCH   2  28
TORSDOF 6
ENDMDL
MODEL 3
REMARK VINA RESULT:      -7.0      1.905      2.269
REMARK  Name = 319810
REMARK  6 active torsions:
REMARK  status: ('A' for Active; 'I' for Inactive)
REMARK    1  A    between atoms: C_3  and  O_5
REMARK    2  A    between atoms: O_5  and  C_8
REMARK    3  A    between atoms: C_14  and  C_15
REMARK    4  A    between atoms: CA_16  and  N_17
REMARK    5  A    between atoms: CA_16  and  C_18
REMARK    6  A    between atoms: C_19  and  C_23
REMARK                            x       y       z     vdW  Elec       q    Type
REMARK                         _______ _______ _______ _____ _____    ______ ____
ROOT
ATOM      1  C   UNL     1      18.764  43.539  45.286  0.00  0.00    +0.000 C 
ATOM      2  CA  UNL     1      17.792  42.782  44.744  0.00  0.00    +0.000 C 
ENDROOT
BRANCH   1   8
ATOM      3  C   UNL     1      21.956  41.814  47.490  0.00  0.00    +0.000 A 
ATOM      4  C   UNL     1      20.693  41.904  48.076  0.00  0.00    +0.000 A 
ATOM      5  C   UNL     1      22.226  42.515  46.311  0.00  0.00    +0.000 A 
ATOM      6  C   UNL     1      19.659  42.564  47.401  0.00  0.00    +0.000 A 
ATOM      7  C   UNL     1      21.186  43.154  45.628  0.00  0.00    +0.000 A 
ATOM      8  C   UNL     1      19.886  43.140  46.146  0.00  0.00    +0.000 A 
BRANCH   3   9
ATOM      9  O   UNL     1      22.888  40.996  48.094  0.00  0.00    +0.000 OA
BRANCH   9  12
ATOM     10 BR   UNL     1      25.421  40.494  46.393  0.00  0.00    +0.000 Br
ATOM     11  C   UNL     1      25.246  41.430  48.034  0.00  0.00    +0.000 A 
ATOM     12  C   UNL     1      24.004  41.595  48.659  0.00  0.00    +0.000 A 
ATOM     13  C   UNL     1      26.405  41.962  48.615  0.00  0.00    +0.000 A 
ATOM     14  C   UNL     1      23.931  42.381  49.820  0.00  0.00    +0.000 A 
ATOM     15  C   UNL     1      26.327  42.677  49.811  0.00  0.00    +0.000 A 
ATOM     16  C   UNL     1      25.089  42.897  50.406  0.00  0.00    +0.000 A 
ENDBRANCH   9  12
ENDBRANCH   3   9
ENDBRANCH   1   8
BRANCH   2  17
ATOM     17  N   UNL     1      17.739  41.396  44.749  0.00  0.00    +0.000 N 
ATOM     18  C   UNL     1      16.930  40.719  45.647  0.00  0.00    +0.000 C 
ATOM     19  O   UNL     1      16.314  41.275  46.554  0.00  0.00    +0.000 OA
ATOM     20  H   UNL     1      18.283  40.887  44.105  0.00  0.00    +0.000 HD
BRANCH  18  21
ATOM     21  C   UNL     1      16.928  39.238  45.592  0.00  0.00    +0.000 A 
ATOM     22  C   UNL     1      17.727  38.633  44.613  0.00  0.00    +0.000 A 
ATOM     23  C   UNL     1      16.247  38.447  46.526  0.00  0.00    +0.000 A 
ATOM     24  C   UNL     1      17.862  37.253  44.589  0.00  0.00    +0.000 A 
ATOM     25  C   UNL     1      16.395  37.055  46.490  0.00  0.00    +0.000 A 
ATOM     26  F   UNL     1      18.645  36.685  43.665  0.00  0.00    +0.000 F 
ATOM     27  C   UNL     1      17.213  36.460  45.526  0.00  0.00    +0.000 A 
ENDBRANCH  18  21
ENDBRANCH   2  17
BRANCH   2  28
ATOM     28  C   UNL     1      16.683  43.536  44.073  0.00  0.00    +0.000 C 
ATOM     29  O   UNL     1      16.174  44.564  44.487  0.00  0.00    +0.000 OA
ATOM     30  OXT UNL     1      16.296  42.924  42.929  0.00  0.00    +0.000 OA
ENDBRANCH   2  28
TORSDOF 6
ENDMDL
MODEL 4
REMARK VINA RESULT:      -6.0      2.448      3.871
REMARK  Name = 319810
REMARK  6 active torsions:
REMARK  status: ('A' for Active; 'I' for Inactive)
REMARK    1  A    between atoms: C_3  and  O_5
REMARK    2  A    between atoms: O_5  and  C_8
REMARK    3  A    between atoms: C_14  and  C_15
REMARK    4  A    between atoms: CA_16  and  N_17
REMARK    5  A    between atoms: CA_16  and  C_18
REMARK    6  A    between atoms: C_19  and  C_23
REMARK                            x       y       z     vdW  Elec       q    Type
REMARK                         _______ _______ _______ _____ _____    ______ ____
ROOT
ATOM      1  C   UNL     1      20.807  38.811  44.117  0.00  0.00    +0.000 C 
ATOM      2  CA  UNL     1      19.597  39.266  44.489  0.00  0.00    +0.000 C 
ENDROOT
BRANCH   1   8
ATOM      3  C   UNL     1      24.376  40.234  45.924  0.00  0.00    +0.000 A 
ATOM      4  C   UNL     1      23.685  41.060  45.037  0.00  0.00    +0.000 A 
ATOM      5  C   UNL     1      24.048  38.878  46.009  0.00  0.00    +0.000 A 
ATOM      6  C   UNL     1      22.566  40.566  44.355  0.00  0.00    +0.000 A 
ATOM      7  C   UNL     1      22.917  38.393  45.345  0.00  0.00    +0.000 A 
ATOM      8  C   UNL     1      22.141  39.247  44.552  0.00  0.00    +0.000 A 
BRANCH   3   9
ATOM      9  O   UNL     1      25.348  40.812  46.714  0.00  0.00    +0.000 OA
BRANCH   9  12
ATOM     10 BR   UNL     1      27.729  41.514  48.558  0.00  0.00    +0.000 Br
ATOM     11  C   UNL     1      25.884  41.890  48.789  0.00  0.00    +0.000 A 
ATOM     12  C   UNL     1      24.933  41.527  47.828  0.00  0.00    +0.000 A 
ATOM     13  C   UNL     1      25.489  42.549  49.960  0.00  0.00    +0.000 A 
ATOM     14  C   UNL     1      23.599  41.921  48.016  0.00  0.00    +0.000 A 
ATOM     15  C   UNL     1      24.147  42.868  50.169  0.00  0.00    +0.000 A 
ATOM     16  C   UNL     1      23.204  42.565  49.191  0.00  0.00    +0.000 A 
ENDBRANCH   9  12
ENDBRANCH   3   9
ENDBRANCH   1   8
BRANCH   2  17
ATOM     17  N   UNL     1      19.342  40.158  45.520  0.00  0.00    +0.000 N 
ATOM     18  C   UNL     1      19.188  41.511  45.266  0.00  0.00    +0.000 C 
ATOM     19  O   UNL     1      19.382  42.018  44.164  0.00  0.00    +0.000 OA
ATOM     20  H   UNL     1      19.268  39.825  46.444  0.00  0.00    +0.000 HD
BRANCH  18  21
ATOM     21  C   UNL     1      18.920  42.403  46.420  0.00  0.00    +0.000 A 
ATOM     22  C   UNL     1      17.764  43.193  46.363  0.00  0.00    +0.000 A 
ATOM     23  C   UNL     1      19.713  42.406  47.575  0.00  0.00    +0.000 A 
ATOM     24  C   UNL     1      17.396  43.955  47.461  0.00  0.00    +0.000 A 
ATOM     25  C   UNL     1      19.326  43.180  48.676  0.00  0.00    +0.000 A 
ATOM     26  F   UNL     1      16.278  44.690  47.406  0.00  0.00    +0.000 F 
ATOM     27  C   UNL     1      18.160  43.947  48.621  0.00  0.00    +0.000 A 
ENDBRANCH  18  21
ENDBRANCH   2  17
BRANCH   2  28
ATOM     28  C   UNL     1      18.436  38.733  43.703  0.00  0.00    +0.000 C 
ATOM     29  O   UNL     1      17.686  39.398  43.009  0.00  0.00    +0.000 OA
ATOM     30  OXT UNL     1      18.307  37.395  43.866  0.00  0.00    +0.000 OA
ENDBRANCH   2  28
TORSDOF 6
ENDMDL
