MODEL 1
REMARK VINA RESULT:      -2.2      0.000      0.000
REMARK  Name = 324010
REMARK  7 active torsions:
REMARK  status: ('A' for Active; 'I' for Inactive)
REMARK    1  A    between atoms: C_3  and  O_5
REMARK    2  A    between atoms: O_5  and  C_8
REMARK    3  A    between atoms: C_14  and  C_15
REMARK    4  A    between atoms: C_16  and  N_17
REMARK    5  A    between atoms: C_16  and  C_18
REMARK    6  A    between atoms: C_19  and  C_23
REMARK    7  A    between atoms: N_21  and  C_24
REMARK                            x       y       z     vdW  Elec       q    Type
REMARK                         _______ _______ _______ _____ _____    ______ ____
ROOT
ATOM      1  C   UNL     1      20.528  42.146  43.815  0.00  0.00    +0.000 C 
ATOM      2  C   UNL     1      19.230  41.803  43.802  0.00  0.00    +0.000 C 
ENDROOT
BRANCH   1   8
ATOM      3  C   UNL     1      23.020  41.089  47.072  0.00  0.00    +0.000 A 
ATOM      4  C   UNL     1      22.287  42.275  47.120  0.00  0.00    +0.000 A 
ATOM      5  C   UNL     1      23.154  40.403  45.857  0.00  0.00    +0.000 A 
ATOM      6  C   UNL     1      21.561  42.693  45.995  0.00  0.00    +0.000 A 
ATOM      7  C   UNL     1      22.411  40.811  44.744  0.00  0.00    +0.000 A 
ATOM      8  C   UNL     1      21.571  41.933  44.824  0.00  0.00    +0.000 A 
BRANCH   3   9
ATOM      9  O   UNL     1      23.576  40.637  48.253  0.00  0.00    +0.000 OA
BRANCH   9  12
ATOM     10 BR   UNL     1      26.391  41.389  47.222  0.00  0.00    +0.000 Br
ATOM     11  C   UNL     1      25.491  41.980  48.784  0.00  0.00    +0.000 A 
ATOM     12  C   UNL     1      24.190  41.559  49.087  0.00  0.00    +0.000 A 
ATOM     13  C   UNL     1      26.166  42.867  49.633  0.00  0.00    +0.000 A 
ATOM     14  C   UNL     1      23.544  42.117  50.202  0.00  0.00    +0.000 A 
ATOM     15  C   UNL     1      25.538  43.356  50.779  0.00  0.00    +0.000 A 
ATOM     16  C   UNL     1      24.223  42.992  51.055  0.00  0.00    +0.000 A 
ENDBRANCH   9  12
ENDBRANCH   3   9
ENDBRANCH   1   8
BRANCH   2  17
ATOM     17  N   UNL     1      18.633  41.006  44.768  0.00  0.00    +0.000 N 
ATOM     18  C   UNL     1      18.473  39.649  44.542  0.00  0.00    +0.000 C 
ATOM     19  O   UNL     1      18.920  39.059  43.563  0.00  0.00    +0.000 OA
ATOM     20  H   UNL     1      18.324  41.405  45.613  0.00  0.00    +0.000 HD
BRANCH  18  21
ATOM     21  C   UNL     1      17.718  38.889  45.571  0.00  0.00    +0.000 A 
ATOM     22  C   UNL     1      17.144  39.588  46.640  0.00  0.00    +0.000 A 
ATOM     23  C   UNL     1      17.449  37.525  45.403  0.00  0.00    +0.000 A 
ATOM     24  C   UNL     1      16.282  38.933  47.520  0.00  0.00    +0.000 A 
ATOM     25  C   UNL     1      16.572  36.879  46.280  0.00  0.00    +0.000 A 
ATOM     26  C   UNL     1      15.982  37.585  47.330  0.00  0.00    +0.000 A 
ENDBRANCH  18  21
ENDBRANCH   2  17
BRANCH   2  27
ATOM     27  C   UNL     1      18.456  42.260  42.565  0.00  0.00    +0.000 C 
ATOM     28  O   UNL     1      18.746  43.338  42.045  0.00  0.00    +0.000 OA
ATOM     29  N   UNL     1      17.470  41.407  42.121  0.00  0.00    +0.000 N 
ATOM     30  H   UNL     1      17.319  40.588  42.647  0.00  0.00    +0.000 HD
BRANCH  29  31
ATOM     31  C   UNL     1      16.648  41.596  40.977  0.00  0.00    +0.000 A 
ATOM     32  C   UNL     1      17.071  42.255  39.816  0.00  0.00    +0.000 A 
ATOM     33  C   UNL     1      15.340  41.093  41.015  0.00  0.00    +0.000 A 
ATOM     34  C   UNL     1      16.198  42.435  38.732  0.00  0.00    +0.000 A 
ATOM     35  C   UNL     1      14.464  41.277  39.935  0.00  0.00    +0.000 A 
ATOM     36  C   UNL     1      14.894  41.952  38.795  0.00  0.00    +0.000 A 
ENDBRANCH  29  31
ENDBRANCH   2  27
TORSDOF 7
ENDMDL
MODEL 2
REMARK VINA RESULT:      -1.7      2.027      2.991
REMARK  Name = 324010
REMARK  7 active torsions:
REMARK  status: ('A' for Active; 'I' for Inactive)
REMARK    1  A    between atoms: C_3  and  O_5
REMARK    2  A    between atoms: O_5  and  C_8
REMARK    3  A    between atoms: C_14  and  C_15
REMARK    4  A    between atoms: C_16  and  N_17
REMARK    5  A    between atoms: C_16  and  C_18
REMARK    6  A    between atoms: C_19  and  C_23
REMARK    7  A    between atoms: N_21  and  C_24
REMARK                            x       y       z     vdW  Elec       q    Type
REMARK                         _______ _______ _______ _____ _____    ______ ____
ROOT
ATOM      1  C   UNL     1      20.477  40.141  43.575  0.00  0.00    +0.000 C 
ATOM      2  C   UNL     1      19.356  40.850  43.788  0.00  0.00    +0.000 C 
ENDROOT
BRANCH   1   8
ATOM      3  C   UNL     1      23.825  40.175  46.169  0.00  0.00    +0.000 A 
ATOM      4  C   UNL     1      23.284  41.381  45.723  0.00  0.00    +0.000 A 
ATOM      5  C   UNL     1      23.452  38.975  45.547  0.00  0.00    +0.000 A 
ATOM      6  C   UNL     1      22.259  41.376  44.767  0.00  0.00    +0.000 A 
ATOM      7  C   UNL     1      22.415  38.972  44.609  0.00  0.00    +0.000 A 
ATOM      8  C   UNL     1      21.779  40.171  44.251  0.00  0.00    +0.000 A 
BRANCH   3   9
ATOM      9  O   UNL     1      24.709  40.227  47.229  0.00  0.00    +0.000 OA
BRANCH   9  12
ATOM     10 BR   UNL     1      27.395  41.461  48.130  0.00  0.00    +0.000 Br
ATOM     11  C   UNL     1      25.639  41.836  48.745  0.00  0.00    +0.000 A 
ATOM     12  C   UNL     1      24.517  41.200  48.198  0.00  0.00    +0.000 A 
ATOM     13  C   UNL     1      25.491  42.783  49.767  0.00  0.00    +0.000 A 
ATOM     14  C   UNL     1      23.242  41.601  48.626  0.00  0.00    +0.000 A 
ATOM     15  C   UNL     1      24.220  43.117  50.234  0.00  0.00    +0.000 A 
ATOM     16  C   UNL     1      23.095  42.537  49.653  0.00  0.00    +0.000 A 
ENDBRANCH   9  12
ENDBRANCH   3   9
ENDBRANCH   1   8
BRANCH   2  17
ATOM     17  N   UNL     1      19.181  41.713  44.858  0.00  0.00    +0.000 N 
ATOM     18  C   UNL     1      18.322  41.370  45.889  0.00  0.00    +0.000 C 
ATOM     19  O   UNL     1      17.760  40.283  45.981  0.00  0.00    +0.000 OA
ATOM     20  H   UNL     1      19.667  42.569  44.886  0.00  0.00    +0.000 HD
BRANCH  18  21
ATOM     21  C   UNL     1      18.098  42.399  46.937  0.00  0.00    +0.000 A 
ATOM     22  C   UNL     1      19.045  42.539  47.960  0.00  0.00    +0.000 A 
ATOM     23  C   UNL     1      17.047  43.318  46.828  0.00  0.00    +0.000 A 
ATOM     24  C   UNL     1      18.957  43.608  48.851  0.00  0.00    +0.000 A 
ATOM     25  C   UNL     1      16.975  44.396  47.716  0.00  0.00    +0.000 A 
ATOM     26  C   UNL     1      17.934  44.546  48.719  0.00  0.00    +0.000 A 
ENDBRANCH  18  21
ENDBRANCH   2  17
BRANCH   2  27
ATOM     27  C   UNL     1      18.213  40.551  42.817  0.00  0.00    +0.000 C 
ATOM     28  O   UNL     1      17.679  39.442  42.847  0.00  0.00    +0.000 OA
ATOM     29  N   UNL     1      17.866  41.574  41.962  0.00  0.00    +0.000 N 
ATOM     30  H   UNL     1      18.395  42.403  42.020  0.00  0.00    +0.000 HD
BRANCH  29  31
ATOM     31  C   UNL     1      16.817  41.548  41.003  0.00  0.00    +0.000 A 
ATOM     32  C   UNL     1      15.550  41.005  41.250  0.00  0.00    +0.000 A 
ATOM     33  C   UNL     1      17.068  42.096  39.737  0.00  0.00    +0.000 A 
ATOM     34  C   UNL     1      14.568  40.983  40.248  0.00  0.00    +0.000 A 
ATOM     35  C   UNL     1      16.090  42.070  38.732  0.00  0.00    +0.000 A 
ATOM     36  C   UNL     1      14.841  41.509  38.988  0.00  0.00    +0.000 A 
ENDBRANCH  29  31
ENDBRANCH   2  27
TORSDOF 7
ENDMDL
MODEL 3
REMARK VINA RESULT:      -0.5      2.291      3.246
REMARK  Name = 324010
REMARK  7 active torsions:
REMARK  status: ('A' for Active; 'I' for Inactive)
REMARK    1  A    between atoms: C_3  and  O_5
REMARK    2  A    between atoms: O_5  and  C_8
REMARK    3  A    between atoms: C_14  and  C_15
REMARK    4  A    between atoms: C_16  and  N_17
REMARK    5  A    between atoms: C_16  and  C_18
REMARK    6  A    between atoms: C_19  and  C_23
REMARK    7  A    between atoms: N_21  and  C_24
REMARK                            x       y       z     vdW  Elec       q    Type
REMARK                         _______ _______ _______ _____ _____    ______ ____
ROOT
ATOM      1  C   UNL     1      20.848  39.933  43.433  0.00  0.00    +0.000 C 
ATOM      2  C   UNL     1      19.773  40.685  43.724  0.00  0.00    +0.000 C 
ENDROOT
BRANCH   1   8
ATOM      3  C   UNL     1      24.384  39.918  45.764  0.00  0.00    +0.000 A 
ATOM      4  C   UNL     1      23.892  41.124  45.262  0.00  0.00    +0.000 A 
ATOM      5  C   UNL     1      23.883  38.705  45.272  0.00  0.00    +0.000 A 
ATOM      6  C   UNL     1      22.797  41.121  44.386  0.00  0.00    +0.000 A 
ATOM      7  C   UNL     1      22.777  38.707  44.415  0.00  0.00    +0.000 A 
ATOM      8  C   UNL     1      22.197  39.919  44.008  0.00  0.00    +0.000 A 
BRANCH   3   9
ATOM      9  O   UNL     1      25.349  39.986  46.750  0.00  0.00    +0.000 OA
BRANCH   9  12
ATOM     10 BR   UNL     1      22.493  39.970  47.930  0.00  0.00    +0.000 Br
ATOM     11  C   UNL     1      23.960  41.094  48.360  0.00  0.00    +0.000 A 
ATOM     12  C   UNL     1      25.209  40.942  47.744  0.00  0.00    +0.000 A 
ATOM     13  C   UNL     1      23.762  42.087  49.329  0.00  0.00    +0.000 A 
ATOM     14  C   UNL     1      26.278  41.737  48.185  0.00  0.00    +0.000 A 
ATOM     15  C   UNL     1      24.816  42.920  49.704  0.00  0.00    +0.000 A 
ATOM     16  C   UNL     1      26.077  42.736  49.142  0.00  0.00    +0.000 A 
ENDBRANCH   9  12
ENDBRANCH   3   9
ENDBRANCH   1   8
BRANCH   2  17
ATOM     17  N   UNL     1      19.712  41.560  44.797  0.00  0.00    +0.000 N 
ATOM     18  C   UNL     1      18.742  41.395  45.770  0.00  0.00    +0.000 C 
ATOM     19  O   UNL     1      17.965  40.445  45.812  0.00  0.00    +0.000 OA
ATOM     20  H   UNL     1      20.359  42.300  44.867  0.00  0.00    +0.000 HD
BRANCH  18  21
ATOM     21  C   UNL     1      18.668  42.444  46.820  0.00  0.00    +0.000 A 
ATOM     22  C   UNL     1      17.740  43.482  46.673  0.00  0.00    +0.000 A 
ATOM     23  C   UNL     1      19.397  42.322  48.009  0.00  0.00    +0.000 A 
ATOM     24  C   UNL     1      17.521  44.377  47.721  0.00  0.00    +0.000 A 
ATOM     25  C   UNL     1      19.161  43.214  49.061  0.00  0.00    +0.000 A 
ATOM     26  C   UNL     1      18.217  44.232  48.919  0.00  0.00    +0.000 A 
ENDBRANCH  18  21
ENDBRANCH   2  17
BRANCH   2  27
ATOM     27  C   UNL     1      18.549  40.422  42.846  0.00  0.00    +0.000 C 
ATOM     28  O   UNL     1      18.048  39.297  42.840  0.00  0.00    +0.000 OA
ATOM     29  N   UNL     1      18.094  41.495  42.112  0.00  0.00    +0.000 N 
ATOM     30  H   UNL     1      18.604  42.334  42.184  0.00  0.00    +0.000 HD
BRANCH  29  31
ATOM     31  C   UNL     1      16.958  41.506  41.257  0.00  0.00    +0.000 A 
ATOM     32  C   UNL     1      15.684  41.079  41.651  0.00  0.00    +0.000 A 
ATOM     33  C   UNL     1      17.124  41.972  39.945  0.00  0.00    +0.000 A 
ATOM     34  C   UNL     1      14.610  41.088  40.748  0.00  0.00    +0.000 A 
ATOM     35  C   UNL     1      16.053  41.976  39.039  0.00  0.00    +0.000 A 
ATOM     36  C   UNL     1      14.797  41.530  39.441  0.00  0.00    +0.000 A 
ENDBRANCH  29  31
ENDBRANCH   2  27
TORSDOF 7
ENDMDL
MODEL 4
REMARK VINA RESULT:      -0.3      3.436      8.995
REMARK  Name = 324010
REMARK  7 active torsions:
REMARK  status: ('A' for Active; 'I' for Inactive)
REMARK    1  A    between atoms: C_3  and  O_5
REMARK    2  A    between atoms: O_5  and  C_8
REMARK    3  A    between atoms: C_14  and  C_15
REMARK    4  A    between atoms: C_16  and  N_17
REMARK    5  A    between atoms: C_16  and  C_18
REMARK    6  A    between atoms: C_19  and  C_23
REMARK    7  A    between atoms: N_21  and  C_24
REMARK                            x       y       z     vdW  Elec       q    Type
REMARK                         _______ _______ _______ _____ _____    ______ ____
ROOT
ATOM      1  C   UNL     1      23.006  41.035  45.674  0.00  0.00    +0.000 C 
ATOM      2  C   UNL     1      22.756  41.862  46.703  0.00  0.00    +0.000 C 
ENDROOT
BRANCH   1   8
ATOM      3  C   UNL     1      19.909  39.263  43.393  0.00  0.00    +0.000 A 
ATOM      4  C   UNL     1      20.877  38.454  43.989  0.00  0.00    +0.000 A 
ATOM      5  C   UNL     1      20.116  40.647  43.308  0.00  0.00    +0.000 A 
ATOM      6  C   UNL     1      21.974  39.040  44.638  0.00  0.00    +0.000 A 
ATOM      7  C   UNL     1      21.200  41.228  43.974  0.00  0.00    +0.000 A 
ATOM      8  C   UNL     1      22.108  40.429  44.686  0.00  0.00    +0.000 A 
BRANCH   3   9
ATOM      9  O   UNL     1      18.769  38.645  42.918  0.00  0.00    +0.000 OA
BRANCH   9  12
ATOM     10 BR   UNL     1      16.813  40.948  43.566  0.00  0.00    +0.000 Br
ATOM     11  C   UNL     1      16.860  39.185  44.266  0.00  0.00    +0.000 A 
ATOM     12  C   UNL     1      17.806  38.247  43.833  0.00  0.00    +0.000 A 
ATOM     13  C   UNL     1      15.907  38.838  45.233  0.00  0.00    +0.000 A 
ATOM     14  C   UNL     1      17.719  36.931  44.314  0.00  0.00    +0.000 A 
ATOM     15  C   UNL     1      15.880  37.546  45.758  0.00  0.00    +0.000 A 
ATOM     16  C   UNL     1      16.776  36.589  45.288  0.00  0.00    +0.000 A 
ENDBRANCH   9  12
ENDBRANCH   3   9
ENDBRANCH   1   8
BRANCH   2  17
ATOM     17  N   UNL     1      21.518  42.437  46.947  0.00  0.00    +0.000 N 
ATOM     18  C   UNL     1      20.426  41.633  47.229  0.00  0.00    +0.000 C 
ATOM     19  O   UNL     1      20.490  40.417  47.381  0.00  0.00    +0.000 OA
ATOM     20  H   UNL     1      21.415  43.416  46.920  0.00  0.00    +0.000 HD
BRANCH  18  21
ATOM     21  C   UNL     1      19.114  42.317  47.358  0.00  0.00    +0.000 A 
ATOM     22  C   UNL     1      19.089  43.663  47.744  0.00  0.00    +0.000 A 
ATOM     23  C   UNL     1      17.931  41.684  46.957  0.00  0.00    +0.000 A 
ATOM     24  C   UNL     1      17.893  44.381  47.701  0.00  0.00    +0.000 A 
ATOM     25  C   UNL     1      16.739  42.414  46.902  0.00  0.00    +0.000 A 
ATOM     26  C   UNL     1      16.724  43.762  47.263  0.00  0.00    +0.000 A 
ENDBRANCH  18  21
ENDBRANCH   2  17
BRANCH   2  27
ATOM     27  C   UNL     1      23.980  42.233  47.542  0.00  0.00    +0.000 C 
ATOM     28  O   UNL     1      25.041  42.485  46.971  0.00  0.00    +0.000 OA
ATOM     29  N   UNL     1      23.791  42.253  48.906  0.00  0.00    +0.000 N 
ATOM     30  H   UNL     1      22.899  42.000  49.237  0.00  0.00    +0.000 HD
BRANCH  29  31
ATOM     31  C   UNL     1      24.763  42.601  49.883  0.00  0.00    +0.000 A 
ATOM     32  C   UNL     1      26.144  42.561  49.656  0.00  0.00    +0.000 A 
ATOM     33  C   UNL     1      24.311  43.007  51.147  0.00  0.00    +0.000 A 
ATOM     34  C   UNL     1      27.051  42.890  50.674  0.00  0.00    +0.000 A 
ATOM     35  C   UNL     1      25.216  43.330  52.168  0.00  0.00    +0.000 A 
ATOM     36  C   UNL     1      26.587  43.267  51.931  0.00  0.00    +0.000 A 
ENDBRANCH  29  31
ENDBRANCH   2  27
TORSDOF 7
ENDMDL
