MODEL 1
REMARK VINA RESULT:      -7.9      0.000      0.000
REMARK  Name = 323613
REMARK  7 active torsions:
REMARK  status: ('A' for Active; 'I' for Inactive)
REMARK    1  A    between atoms: C_3  and  O_5
REMARK    2  A    between atoms: O_5  and  C_8
REMARK    3  A    between atoms: C_14  and  C_15
REMARK    4  A    between atoms: CA_16  and  N_17
REMARK    5  A    between atoms: CA_16  and  C_18
REMARK    6  A    between atoms: C_19  and  C_23
REMARK    7  A    between atoms: C_23  and  O_24
REMARK                            x       y       z     vdW  Elec       q    Type
REMARK                         _______ _______ _______ _____ _____    ______ ____
ROOT
ATOM      1  C   UNL     1      18.926  42.204  45.995  0.00  0.00    +0.000 A 
ATOM      2  C   UNL     1      19.924  42.753  45.193  0.00  0.00    +0.000 A 
ATOM      3  C   UNL     1      19.158  42.024  47.360  0.00  0.00    +0.000 A 
ATOM      4  C   UNL     1      21.221  42.881  45.705  0.00  0.00    +0.000 A 
ATOM      5  C   UNL     1      20.442  42.195  47.883  0.00  0.00    +0.000 A 
ATOM      6  C   UNL     1      21.497  42.553  47.036  0.00  0.00    +0.000 A 
ENDROOT
BRANCH   6   7
ATOM      7  C   UNL     1      22.875  42.362  47.504  0.00  0.00    +0.000 C 
ATOM      8  CA  UNL     1      23.709  41.335  47.274  0.00  0.00    +0.000 C 
BRANCH   8   9
ATOM      9  N   UNL     1      23.382  40.151  46.648  0.00  0.00    +0.000 N 
ATOM     10  C   UNL     1      23.533  39.914  45.291  0.00  0.00    +0.000 C 
ATOM     11  O   UNL     1      23.826  40.765  44.459  0.00  0.00    +0.000 OA
ATOM     12  H   UNL     1      23.015  39.425  47.203  0.00  0.00    +0.000 HD
BRANCH  10  13
ATOM     13  C   UNL     1      23.160  38.488  44.902  0.00  0.00    +0.000 C 
BRANCH  13  14
ATOM     14  O   UNL     1      23.705  37.528  45.797  0.00  0.00    +0.000 OA
ATOM     15  H   UNL     1      24.667  37.486  45.680  0.00  0.00    +0.000 HD
ENDBRANCH  13  14
ENDBRANCH  10  13
ENDBRANCH   8   9
BRANCH   8  16
ATOM     16  C   UNL     1      25.136  41.542  47.686  0.00  0.00    +0.000 C 
ATOM     17  O   UNL     1      26.116  41.144  47.075  0.00  0.00    +0.000 OA
ATOM     18  OXT UNL     1      25.210  42.236  48.845  0.00  0.00    +0.000 OA
ENDBRANCH   8  16
ENDBRANCH   6   7
BRANCH   1  19
ATOM     19  O   UNL     1      17.692  41.793  45.560  0.00  0.00    +0.000 OA
BRANCH  19  22
ATOM     20  I   UNL     1      19.450  39.318  43.620  0.00  0.00    +0.000 I 
ATOM     21  C   UNL     1      17.759  39.365  44.883  0.00  0.00    +0.000 A 
ATOM     22  C   UNL     1      17.291  40.475  45.604  0.00  0.00    +0.000 A 
ATOM     23  C   UNL     1      17.179  38.100  45.098  0.00  0.00    +0.000 A 
ATOM     24  C   UNL     1      16.355  40.252  46.631  0.00  0.00    +0.000 A 
ATOM     25  C   UNL     1      16.229  37.908  46.100  0.00  0.00    +0.000 A 
ATOM     26  C   UNL     1      15.842  38.981  46.891  0.00  0.00    +0.000 A 
ENDBRANCH  19  22
ENDBRANCH   1  19
TORSDOF 7
ENDMDL
MODEL 2
REMARK VINA RESULT:      -7.8      1.706      2.124
REMARK  Name = 323613
REMARK  7 active torsions:
REMARK  status: ('A' for Active; 'I' for Inactive)
REMARK    1  A    between atoms: C_3  and  O_5
REMARK    2  A    between atoms: O_5  and  C_8
REMARK    3  A    between atoms: C_14  and  C_15
REMARK    4  A    between atoms: CA_16  and  N_17
REMARK    5  A    between atoms: CA_16  and  C_18
REMARK    6  A    between atoms: C_19  and  C_23
REMARK    7  A    between atoms: C_23  and  O_24
REMARK                            x       y       z     vdW  Elec       q    Type
REMARK                         _______ _______ _______ _____ _____    ______ ____
ROOT
ATOM      1  C   UNL     1      20.154  41.117  45.568  0.00  0.00    +0.000 A 
ATOM      2  C   UNL     1      20.998  42.126  45.111  0.00  0.00    +0.000 A 
ATOM      3  C   UNL     1      20.194  40.740  46.912  0.00  0.00    +0.000 A 
ATOM      4  C   UNL     1      22.042  42.572  45.933  0.00  0.00    +0.000 A 
ATOM      5  C   UNL     1      21.207  41.217  47.747  0.00  0.00    +0.000 A 
ATOM      6  C   UNL     1      22.182  42.080  47.234  0.00  0.00    +0.000 A 
ENDROOT
BRANCH   6   7
ATOM      7  C   UNL     1      23.426  42.269  47.990  0.00  0.00    +0.000 C 
ATOM      8  CA  UNL     1      24.601  41.632  47.854  0.00  0.00    +0.000 C 
BRANCH   8   9
ATOM      9  N   UNL     1      24.841  40.542  47.045  0.00  0.00    +0.000 N 
ATOM     10  C   UNL     1      24.227  39.308  47.191  0.00  0.00    +0.000 C 
ATOM     11  O   UNL     1      23.520  38.983  48.138  0.00  0.00    +0.000 OA
ATOM     12  H   UNL     1      25.493  40.647  46.315  0.00  0.00    +0.000 HD
BRANCH  10  13
ATOM     13  C   UNL     1      24.634  38.321  46.102  0.00  0.00    +0.000 C 
BRANCH  13  14
ATOM     14  O   UNL     1      23.509  37.705  45.491  0.00  0.00    +0.000 OA
ATOM     15  H   UNL     1      22.971  38.380  45.049  0.00  0.00    +0.000 HD
ENDBRANCH  13  14
ENDBRANCH  10  13
ENDBRANCH   8   9
BRANCH   8  16
ATOM     16  C   UNL     1      25.757  42.216  48.610  0.00  0.00    +0.000 C 
ATOM     17  O   UNL     1      25.711  43.205  49.324  0.00  0.00    +0.000 OA
ATOM     18  OXT UNL     1      26.885  41.499  48.399  0.00  0.00    +0.000 OA
ENDBRANCH   8  16
ENDBRANCH   6   7
BRANCH   1  19
ATOM     19  O   UNL     1      19.261  40.417  44.799  0.00  0.00    +0.000 OA
BRANCH  19  22
ATOM     20  I   UNL     1      16.788  42.440  46.464  0.00  0.00    +0.000 I 
ATOM     21  C   UNL     1      17.088  40.387  46.078  0.00  0.00    +0.000 A 
ATOM     22  C   UNL     1      18.132  39.827  45.325  0.00  0.00    +0.000 A 
ATOM     23  C   UNL     1      16.028  39.569  46.516  0.00  0.00    +0.000 A 
ATOM     24  C   UNL     1      18.003  38.490  44.904  0.00  0.00    +0.000 A 
ATOM     25  C   UNL     1      15.938  38.237  46.115  0.00  0.00    +0.000 A 
ATOM     26  C   UNL     1      16.910  37.707  45.278  0.00  0.00    +0.000 A 
ENDBRANCH  19  22
ENDBRANCH   1  19
TORSDOF 7
ENDMDL
MODEL 3
REMARK VINA RESULT:      -7.7      2.948      7.179
REMARK  Name = 323613
REMARK  7 active torsions:
REMARK  status: ('A' for Active; 'I' for Inactive)
REMARK    1  A    between atoms: C_3  and  O_5
REMARK    2  A    between atoms: O_5  and  C_8
REMARK    3  A    between atoms: C_14  and  C_15
REMARK    4  A    between atoms: CA_16  and  N_17
REMARK    5  A    between atoms: CA_16  and  C_18
REMARK    6  A    between atoms: C_19  and  C_23
REMARK    7  A    between atoms: C_23  and  O_24
REMARK                            x       y       z     vdW  Elec       q    Type
REMARK                         _______ _______ _______ _____ _____    ______ ____
ROOT
ATOM      1  C   UNL     1      21.929  41.305  47.292  0.00  0.00    +0.000 A 
ATOM      2  C   UNL     1      21.915  42.511  46.595  0.00  0.00    +0.000 A 
ATOM      3  C   UNL     1      21.262  40.196  46.767  0.00  0.00    +0.000 A 
ATOM      4  C   UNL     1      21.034  42.670  45.518  0.00  0.00    +0.000 A 
ATOM      5  C   UNL     1      20.416  40.342  45.665  0.00  0.00    +0.000 A 
ATOM      6  C   UNL     1      20.242  41.603  45.082  0.00  0.00    +0.000 A 
ENDROOT
BRANCH   6   7
ATOM      7  C   UNL     1      19.093  41.819  44.195  0.00  0.00    +0.000 C 
ATOM      8  CA  UNL     1      18.237  40.917  43.688  0.00  0.00    +0.000 C 
BRANCH   8   9
ATOM      9  N   UNL     1      18.350  39.547  43.791  0.00  0.00    +0.000 N 
ATOM     10  C   UNL     1      17.500  38.744  44.534  0.00  0.00    +0.000 C 
ATOM     11  O   UNL     1      16.646  39.156  45.310  0.00  0.00    +0.000 OA
ATOM     12  H   UNL     1      19.086  39.110  43.304  0.00  0.00    +0.000 HD
BRANCH  10  13
ATOM     13  C   UNL     1      17.826  37.262  44.395  0.00  0.00    +0.000 C 
BRANCH  13  14
ATOM     14  O   UNL     1      17.447  36.519  45.545  0.00  0.00    +0.000 OA
ATOM     15  H   UNL     1      18.196  36.470  46.159  0.00  0.00    +0.000 HD
ENDBRANCH  13  14
ENDBRANCH  10  13
ENDBRANCH   8   9
BRANCH   8  16
ATOM     16  C   UNL     1      17.021  41.474  43.010  0.00  0.00    +0.000 C 
ATOM     17  O   UNL     1      16.429  40.955  42.076  0.00  0.00    +0.000 OA
ATOM     18  OXT UNL     1      16.649  42.649  43.568  0.00  0.00    +0.000 OA
ENDBRANCH   8  16
ENDBRANCH   6   7
BRANCH   1  19
ATOM     19  O   UNL     1      22.546  41.089  48.497  0.00  0.00    +0.000 OA
BRANCH  19  22
ATOM     20  I   UNL     1      25.332  40.523  46.283  0.00  0.00    +0.000 I 
ATOM     21  C   UNL     1      25.015  41.461  48.148  0.00  0.00    +0.000 A 
ATOM     22  C   UNL     1      23.783  41.615  48.802  0.00  0.00    +0.000 A 
ATOM     23  C   UNL     1      26.161  42.101  48.659  0.00  0.00    +0.000 A 
ATOM     24  C   UNL     1      23.708  42.533  49.866  0.00  0.00    +0.000 A 
ATOM     25  C   UNL     1      26.069  42.981  49.736  0.00  0.00    +0.000 A 
ATOM     26  C   UNL     1      24.832  43.224  50.318  0.00  0.00    +0.000 A 
ENDBRANCH  19  22
ENDBRANCH   1  19
TORSDOF 7
ENDMDL
MODEL 4
REMARK VINA RESULT:      -7.7      1.961      3.378
REMARK  Name = 323613
REMARK  7 active torsions:
REMARK  status: ('A' for Active; 'I' for Inactive)
REMARK    1  A    between atoms: C_3  and  O_5
REMARK    2  A    between atoms: O_5  and  C_8
REMARK    3  A    between atoms: C_14  and  C_15
REMARK    4  A    between atoms: CA_16  and  N_17
REMARK    5  A    between atoms: CA_16  and  C_18
REMARK    6  A    between atoms: C_19  and  C_23
REMARK    7  A    between atoms: C_23  and  O_24
REMARK                            x       y       z     vdW  Elec       q    Type
REMARK                         _______ _______ _______ _____ _____    ______ ____
ROOT
ATOM      1  C   UNL     1      19.450  40.522  43.774  0.00  0.00    +0.000 A 
ATOM      2  C   UNL     1      20.224  39.477  43.276  0.00  0.00    +0.000 A 
ATOM      3  C   UNL     1      20.075  41.666  44.274  0.00  0.00    +0.000 A 
ATOM      4  C   UNL     1      21.605  39.474  43.510  0.00  0.00    +0.000 A 
ATOM      5  C   UNL     1      21.458  41.684  44.467  0.00  0.00    +0.000 A 
ATOM      6  C   UNL     1      22.220  40.553  44.153  0.00  0.00    +0.000 A 
ENDROOT
BRANCH   6   7
ATOM      7  C   UNL     1      23.577  40.440  44.701  0.00  0.00    +0.000 C 
ATOM      8  CA  UNL     1      24.055  40.892  45.872  0.00  0.00    +0.000 C 
BRANCH   8   9
ATOM      9  N   UNL     1      23.381  41.699  46.763  0.00  0.00    +0.000 N 
ATOM     10  C   UNL     1      23.052  41.333  48.059  0.00  0.00    +0.000 C 
ATOM     11  O   UNL     1      23.178  40.206  48.522  0.00  0.00    +0.000 OA
ATOM     12  H   UNL     1      23.114  42.597  46.458  0.00  0.00    +0.000 HD
BRANCH  10  13
ATOM     13  C   UNL     1      22.378  42.461  48.831  0.00  0.00    +0.000 C 
BRANCH  13  14
ATOM     14  O   UNL     1      23.145  42.875  49.954  0.00  0.00    +0.000 OA
ATOM     15  H   UNL     1      22.802  43.718  50.286  0.00  0.00    +0.000 HD
ENDBRANCH  13  14
ENDBRANCH  10  13
ENDBRANCH   8   9
BRANCH   8  16
ATOM     16  C   UNL     1      25.422  40.410  46.254  0.00  0.00    +0.000 C 
ATOM     17  O   UNL     1      26.245  41.045  46.896  0.00  0.00    +0.000 OA
ATOM     18  OXT UNL     1      25.642  39.158  45.791  0.00  0.00    +0.000 OA
ENDBRANCH   8  16
ENDBRANCH   6   7
BRANCH   1  19
ATOM     19  O   UNL     1      18.080  40.538  43.839  0.00  0.00    +0.000 OA
BRANCH  19  22
ATOM     20  I   UNL     1      17.007  42.862  46.373  0.00  0.00    +0.000 I 
ATOM     21  C   UNL     1      16.943  40.773  46.076  0.00  0.00    +0.000 A 
ATOM     22  C   UNL     1      17.385  40.082  44.937  0.00  0.00    +0.000 A 
ATOM     23  C   UNL     1      16.247  40.080  47.086  0.00  0.00    +0.000 A 
ATOM     24  C   UNL     1      16.979  38.744  44.775  0.00  0.00    +0.000 A 
ATOM     25  C   UNL     1      15.884  38.745  46.919  0.00  0.00    +0.000 A 
ATOM     26  C   UNL     1      16.221  38.086  45.745  0.00  0.00    +0.000 A 
ENDBRANCH  19  22
ENDBRANCH   1  19
TORSDOF 7
ENDMDL
MODEL 5
REMARK VINA RESULT:      -7.7      1.718      2.122
REMARK  Name = 323613
REMARK  7 active torsions:
REMARK  status: ('A' for Active; 'I' for Inactive)
REMARK    1  A    between atoms: C_3  and  O_5
REMARK    2  A    between atoms: O_5  and  C_8
REMARK    3  A    between atoms: C_14  and  C_15
REMARK    4  A    between atoms: CA_16  and  N_17
REMARK    5  A    between atoms: CA_16  and  C_18
REMARK    6  A    between atoms: C_19  and  C_23
REMARK    7  A    between atoms: C_23  and  O_24
REMARK                            x       y       z     vdW  Elec       q    Type
REMARK                         _______ _______ _______ _____ _____    ______ ____
ROOT
ATOM      1  C   UNL     1      19.115  42.727  46.277  0.00  0.00    +0.000 A 
ATOM      2  C   UNL     1      20.128  43.326  45.533  0.00  0.00    +0.000 A 
ATOM      3  C   UNL     1      19.412  42.165  47.521  0.00  0.00    +0.000 A 
ATOM      4  C   UNL     1      21.463  43.140  45.916  0.00  0.00    +0.000 A 
ATOM      5  C   UNL     1      20.740  42.018  47.926  0.00  0.00    +0.000 A 
ATOM      6  C   UNL     1      21.776  42.440  47.085  0.00  0.00    +0.000 A 
ENDROOT
BRANCH   6   7
ATOM      7  C   UNL     1      23.136  41.948  47.337  0.00  0.00    +0.000 C 
ATOM      8  CA  UNL     1      23.740  40.850  46.854  0.00  0.00    +0.000 C 
BRANCH   8   9
ATOM      9  N   UNL     1      23.138  39.858  46.109  0.00  0.00    +0.000 N 
ATOM     10  C   UNL     1      23.053  39.859  44.726  0.00  0.00    +0.000 C 
ATOM     11  O   UNL     1      23.357  40.802  44.005  0.00  0.00    +0.000 OA
ATOM     12  H   UNL     1      22.742  39.098  46.593  0.00  0.00    +0.000 HD
BRANCH  10  13
ATOM     13  C   UNL     1      22.402  38.593  44.180  0.00  0.00    +0.000 C 
BRANCH  13  14
ATOM     14  O   UNL     1      21.027  38.787  43.876  0.00  0.00    +0.000 OA
ATOM     15  H   UNL     1      20.874  38.595  42.938  0.00  0.00    +0.000 HD
ENDBRANCH  13  14
ENDBRANCH  10  13
ENDBRANCH   8   9
BRANCH   8  16
ATOM     16  C   UNL     1      25.215  40.747  47.103  0.00  0.00    +0.000 C 
ATOM     17  O   UNL     1      26.039  40.312  46.314  0.00  0.00    +0.000 OA
ATOM     18  OXT UNL     1      25.531  41.202  48.337  0.00  0.00    +0.000 OA
ENDBRANCH   8  16
ENDBRANCH   6   7
BRANCH   1  19
ATOM     19  O   UNL     1      17.804  42.615  45.892  0.00  0.00    +0.000 OA
BRANCH  19  22
ATOM     20  I   UNL     1      16.542  39.369  46.816  0.00  0.00    +0.000 I 
ATOM     21  C   UNL     1      16.949  40.408  45.024  0.00  0.00    +0.000 A 
ATOM     22  C   UNL     1      17.391  41.736  44.915  0.00  0.00    +0.000 A 
ATOM     23  C   UNL     1      16.581  39.698  43.864  0.00  0.00    +0.000 A 
ATOM     24  C   UNL     1      17.304  42.362  43.657  0.00  0.00    +0.000 A 
ATOM     25  C   UNL     1      16.535  40.330  42.622  0.00  0.00    +0.000 A 
ATOM     26  C   UNL     1      16.864  41.675  42.525  0.00  0.00    +0.000 A 
ENDBRANCH  19  22
ENDBRANCH   1  19
TORSDOF 7
ENDMDL
MODEL 6
REMARK VINA RESULT:      -7.3      1.502      3.019
REMARK  Name = 323613
REMARK  7 active torsions:
REMARK  status: ('A' for Active; 'I' for Inactive)
REMARK    1  A    between atoms: C_3  and  O_5
REMARK    2  A    between atoms: O_5  and  C_8
REMARK    3  A    between atoms: C_14  and  C_15
REMARK    4  A    between atoms: CA_16  and  N_17
REMARK    5  A    between atoms: CA_16  and  C_18
REMARK    6  A    between atoms: C_19  and  C_23
REMARK    7  A    between atoms: C_23  and  O_24
REMARK                            x       y       z     vdW  Elec       q    Type
REMARK                         _______ _______ _______ _____ _____    ______ ____
ROOT
ATOM      1  C   UNL     1      19.228  42.022  46.246  0.00  0.00    +0.000 A 
ATOM      2  C   UNL     1      20.013  43.041  45.708  0.00  0.00    +0.000 A 
ATOM      3  C   UNL     1      19.791  41.122  47.152  0.00  0.00    +0.000 A 
ATOM      4  C   UNL     1      21.402  43.000  45.884  0.00  0.00    +0.000 A 
ATOM      5  C   UNL     1      21.172  41.108  47.364  0.00  0.00    +0.000 A 
ATOM      6  C   UNL     1      21.992  42.004  46.668  0.00  0.00    +0.000 A 
ENDROOT
BRANCH   6   7
ATOM      7  C   UNL     1      23.434  41.738  46.604  0.00  0.00    +0.000 C 
ATOM      8  CA  UNL     1      24.289  41.474  47.605  0.00  0.00    +0.000 C 
BRANCH   8   9
ATOM      9  N   UNL     1      24.001  41.538  48.952  0.00  0.00    +0.000 N 
ATOM     10  C   UNL     1      24.381  42.577  49.786  0.00  0.00    +0.000 C 
ATOM     11  O   UNL     1      25.145  43.483  49.474  0.00  0.00    +0.000 OA
ATOM     12  H   UNL     1      23.491  40.794  49.348  0.00  0.00    +0.000 HD
BRANCH  10  13
ATOM     13  C   UNL     1      23.853  42.409  51.207  0.00  0.00    +0.000 C 
BRANCH  13  14
ATOM     14  O   UNL     1      24.603  43.163  52.149  0.00  0.00    +0.000 OA
ATOM     15  H   UNL     1      25.133  42.562  52.696  0.00  0.00    +0.000 HD
ENDBRANCH  13  14
ENDBRANCH  10  13
ENDBRANCH   8   9
BRANCH   8  16
ATOM     16  C   UNL     1      25.654  41.006  47.199  0.00  0.00    +0.000 C 
ATOM     17  O   UNL     1      26.684  41.189  47.829  0.00  0.00    +0.000 OA
ATOM     18  OXT UNL     1      25.609  40.343  46.020  0.00  0.00    +0.000 OA
ENDBRANCH   8  16
ENDBRANCH   6   7
BRANCH   1  19
ATOM     19  O   UNL     1      17.908  41.796  45.953  0.00  0.00    +0.000 OA
BRANCH  19  22
ATOM     20  I   UNL     1      19.381  39.454  43.646  0.00  0.00    +0.000 I 
ATOM     21  C   UNL     1      17.726  39.488  44.955  0.00  0.00    +0.000 A 
ATOM     22  C   UNL     1      17.381  40.529  45.832  0.00  0.00    +0.000 A 
ATOM     23  C   UNL     1      17.029  38.265  45.017  0.00  0.00    +0.000 A 
ATOM     24  C   UNL     1      16.447  40.257  46.849  0.00  0.00    +0.000 A 
ATOM     25  C   UNL     1      16.082  38.030  46.012  0.00  0.00    +0.000 A 
ATOM     26  C   UNL     1      15.817  39.016  46.952  0.00  0.00    +0.000 A 
ENDBRANCH  19  22
ENDBRANCH   1  19
TORSDOF 7
ENDMDL
MODEL 7
REMARK VINA RESULT:      -7.0      2.221      3.778
REMARK  Name = 323613
REMARK  7 active torsions:
REMARK  status: ('A' for Active; 'I' for Inactive)
REMARK    1  A    between atoms: C_3  and  O_5
REMARK    2  A    between atoms: O_5  and  C_8
REMARK    3  A    between atoms: C_14  and  C_15
REMARK    4  A    between atoms: CA_16  and  N_17
REMARK    5  A    between atoms: CA_16  and  C_18
REMARK    6  A    between atoms: C_19  and  C_23
REMARK    7  A    between atoms: C_23  and  O_24
REMARK                            x       y       z     vdW  Elec       q    Type
REMARK                         _______ _______ _______ _____ _____    ______ ____
ROOT
ATOM      1  C   UNL     1      19.085  41.514  47.075  0.00  0.00    +0.000 A 
ATOM      2  C   UNL     1      19.717  42.585  47.703  0.00  0.00    +0.000 A 
ATOM      3  C   UNL     1      19.803  40.344  46.817  0.00  0.00    +0.000 A 
ATOM      4  C   UNL     1      21.112  42.574  47.839  0.00  0.00    +0.000 A 
ATOM      5  C   UNL     1      21.188  40.316  46.995  0.00  0.00    +0.000 A 
ATOM      6  C   UNL     1      21.858  41.462  47.437  0.00  0.00    +0.000 A 
ENDROOT
BRANCH   6   7
ATOM      7  C   UNL     1      23.312  41.544  47.259  0.00  0.00    +0.000 C 
ATOM      8  CA  UNL     1      24.280  41.486  48.188  0.00  0.00    +0.000 C 
BRANCH   8   9
ATOM      9  N   UNL     1      24.091  41.476  49.554  0.00  0.00    +0.000 N 
ATOM     10  C   UNL     1      24.211  42.589  50.370  0.00  0.00    +0.000 C 
ATOM     11  O   UNL     1      24.648  43.677  50.012  0.00  0.00    +0.000 OA
ATOM     12  H   UNL     1      23.856  40.619  49.978  0.00  0.00    +0.000 HD
BRANCH  10  13
ATOM     13  C   UNL     1      23.868  42.287  51.824  0.00  0.00    +0.000 C 
BRANCH  13  14
ATOM     14  O   UNL     1      24.538  43.159  52.725  0.00  0.00    +0.000 OA
ATOM     15  H   UNL     1      24.007  43.264  53.529  0.00  0.00    +0.000 HD
ENDBRANCH  13  14
ENDBRANCH  10  13
ENDBRANCH   8   9
BRANCH   8  16
ATOM     16  C   UNL     1      25.681  41.355  47.671  0.00  0.00    +0.000 C 
ATOM     17  O   UNL     1      26.698  41.496  48.332  0.00  0.00    +0.000 OA
ATOM     18  OXT UNL     1      25.685  41.057  46.351  0.00  0.00    +0.000 OA
ENDBRANCH   8  16
ENDBRANCH   6   7
BRANCH   1  19
ATOM     19  O   UNL     1      17.781  41.495  46.654  0.00  0.00    +0.000 OA
BRANCH  19  22
ATOM     20  I   UNL     1      16.547  38.191  45.920  0.00  0.00    +0.000 I 
ATOM     21  C   UNL     1      17.002  39.940  44.829  0.00  0.00    +0.000 A 
ATOM     22  C   UNL     1      17.422  41.167  45.365  0.00  0.00    +0.000 A 
ATOM     23  C   UNL     1      16.691  39.847  43.459  0.00  0.00    +0.000 A 
ATOM     24  C   UNL     1      17.371  42.304  44.536  0.00  0.00    +0.000 A 
ATOM     25  C   UNL     1      16.680  40.981  42.648  0.00  0.00    +0.000 A 
ATOM     26  C   UNL     1      16.987  42.218  43.198  0.00  0.00    +0.000 A 
ENDBRANCH  19  22
ENDBRANCH   1  19
TORSDOF 7
ENDMDL
MODEL 8
REMARK VINA RESULT:      -6.8      3.150      7.042
REMARK  Name = 323613
REMARK  7 active torsions:
REMARK  status: ('A' for Active; 'I' for Inactive)
REMARK    1  A    between atoms: C_3  and  O_5
REMARK    2  A    between atoms: O_5  and  C_8
REMARK    3  A    between atoms: C_14  and  C_15
REMARK    4  A    between atoms: CA_16  and  N_17
REMARK    5  A    between atoms: CA_16  and  C_18
REMARK    6  A    between atoms: C_19  and  C_23
REMARK    7  A    between atoms: C_23  and  O_24
REMARK                            x       y       z     vdW  Elec       q    Type
REMARK                         _______ _______ _______ _____ _____    ______ ____
ROOT
ATOM      1  C   UNL     1      20.927  41.801  47.178  0.00  0.00    +0.000 A 
ATOM      2  C   UNL     1      19.564  41.590  47.371  0.00  0.00    +0.000 A 
ATOM      3  C   UNL     1      21.371  42.414  46.004  0.00  0.00    +0.000 A 
ATOM      4  C   UNL     1      18.684  41.760  46.294  0.00  0.00    +0.000 A 
ATOM      5  C   UNL     1      20.487  42.627  44.945  0.00  0.00    +0.000 A 
ATOM      6  C   UNL     1      19.150  42.228  45.062  0.00  0.00    +0.000 A 
ENDROOT
BRANCH   6   7
ATOM      7  C   UNL     1      18.340  42.105  43.844  0.00  0.00    +0.000 C 
ATOM      8  CA  UNL     1      17.938  40.993  43.207  0.00  0.00    +0.000 C 
BRANCH   8   9
ATOM      9  N   UNL     1      18.334  39.705  43.500  0.00  0.00    +0.000 N 
ATOM     10  C   UNL     1      17.616  38.825  44.294  0.00  0.00    +0.000 C 
ATOM     11  O   UNL     1      16.630  39.124  44.957  0.00  0.00    +0.000 OA
ATOM     12  H   UNL     1      19.185  39.389  43.118  0.00  0.00    +0.000 HD
BRANCH  10  13
ATOM     13  C   UNL     1      18.264  37.448  44.374  0.00  0.00    +0.000 C 
BRANCH  13  14
ATOM     14  O   UNL     1      17.733  36.667  45.436  0.00  0.00    +0.000 OA
ATOM     15  H   UNL     1      17.369  35.842  45.079  0.00  0.00    +0.000 HD
ENDBRANCH  13  14
ENDBRANCH  10  13
ENDBRANCH   8   9
BRANCH   8  16
ATOM     16  C   UNL     1      16.917  41.187  42.127  0.00  0.00    +0.000 C 
ATOM     17  O   UNL     1      15.803  40.687  42.105  0.00  0.00    +0.000 OA
ATOM     18  OXT UNL     1      17.389  41.999  41.153  0.00  0.00    +0.000 OA
ENDBRANCH   8  16
ENDBRANCH   6   7
BRANCH   1  19
ATOM     19  O   UNL     1      21.920  41.442  48.052  0.00  0.00    +0.000 OA
BRANCH  19  22
ATOM     20  I   UNL     1      24.556  42.921  50.013  0.00  0.00    +0.000 I 
ATOM     21  C   UNL     1      24.405  41.837  48.208  0.00  0.00    +0.000 A 
ATOM     22  C   UNL     1      23.233  41.291  47.662  0.00  0.00    +0.000 A 
ATOM     23  C   UNL     1      25.651  41.539  47.622  0.00  0.00    +0.000 A 
ATOM     24  C   UNL     1      23.362  40.338  46.634  0.00  0.00    +0.000 A 
ATOM     25  C   UNL     1      25.752  40.617  46.582  0.00  0.00    +0.000 A 
ATOM     26  C   UNL     1      24.607  39.989  46.111  0.00  0.00    +0.000 A 
ENDBRANCH  19  22
ENDBRANCH   1  19
TORSDOF 7
ENDMDL
MODEL 9
REMARK VINA RESULT:      -6.6      1.978      3.297
REMARK  Name = 323613
REMARK  7 active torsions:
REMARK  status: ('A' for Active; 'I' for Inactive)
REMARK    1  A    between atoms: C_3  and  O_5
REMARK    2  A    between atoms: O_5  and  C_8
REMARK    3  A    between atoms: C_14  and  C_15
REMARK    4  A    between atoms: CA_16  and  N_17
REMARK    5  A    between atoms: CA_16  and  C_18
REMARK    6  A    between atoms: C_19  and  C_23
REMARK    7  A    between atoms: C_23  and  O_24
REMARK                            x       y       z     vdW  Elec       q    Type
REMARK                         _______ _______ _______ _____ _____    ______ ____
ROOT
ATOM      1  C   UNL     1      19.510  39.971  43.606  0.00  0.00    +0.000 A 
ATOM      2  C   UNL     1      20.328  38.845  43.678  0.00  0.00    +0.000 A 
ATOM      3  C   UNL     1      20.087  41.243  43.583  0.00  0.00    +0.000 A 
ATOM      4  C   UNL     1      21.687  39.004  43.979  0.00  0.00    +0.000 A 
ATOM      5  C   UNL     1      21.451  41.401  43.838  0.00  0.00    +0.000 A 
ATOM      6  C   UNL     1      22.243  40.280  44.113  0.00  0.00    +0.000 A 
ENDROOT
BRANCH   6   7
ATOM      7  C   UNL     1      23.554  40.478  44.741  0.00  0.00    +0.000 C 
ATOM      8  CA  UNL     1      23.858  41.134  45.873  0.00  0.00    +0.000 C 
BRANCH   8   9
ATOM      9  N   UNL     1      22.988  41.897  46.623  0.00  0.00    +0.000 N 
ATOM     10  C   UNL     1      22.020  41.379  47.468  0.00  0.00    +0.000 C 
ATOM     11  O   UNL     1      21.711  40.195  47.538  0.00  0.00    +0.000 OA
ATOM     12  H   UNL     1      23.060  42.877  46.553  0.00  0.00    +0.000 HD
BRANCH  10  13
ATOM     13  C   UNL     1      21.263  42.465  48.224  0.00  0.00    +0.000 C 
BRANCH  13  14
ATOM     14  O   UNL     1      19.867  42.426  47.961  0.00  0.00    +0.000 OA
ATOM     15  H   UNL     1      19.477  43.293  48.155  0.00  0.00    +0.000 HD
ENDBRANCH  13  14
ENDBRANCH  10  13
ENDBRANCH   8   9
BRANCH   8  16
ATOM     16  C   UNL     1      25.256  40.955  46.382  0.00  0.00    +0.000 C 
ATOM     17  O   UNL     1      26.047  40.105  46.002  0.00  0.00    +0.000 OA
ATOM     18  OXT UNL     1      25.545  41.868  47.338  0.00  0.00    +0.000 OA
ENDBRANCH   8  16
ENDBRANCH   6   7
BRANCH   1  19
ATOM     19  O   UNL     1      18.140  39.958  43.567  0.00  0.00    +0.000 OA
BRANCH  19  22
ATOM     20  I   UNL     1      17.159  36.794  44.984  0.00  0.00    +0.000 I 
ATOM     21  C   UNL     1      16.799  38.835  45.383  0.00  0.00    +0.000 A 
ATOM     22  C   UNL     1      17.366  39.926  44.706  0.00  0.00    +0.000 A 
ATOM     23  C   UNL     1      16.028  39.057  46.541  0.00  0.00    +0.000 A 
ATOM     24  C   UNL     1      17.267  41.199  45.300  0.00  0.00    +0.000 A 
ATOM     25  C   UNL     1      15.916  40.331  47.094  0.00  0.00    +0.000 A 
ATOM     26  C   UNL     1      16.568  41.399  46.491  0.00  0.00    +0.000 A 
ENDBRANCH  19  22
ENDBRANCH   1  19
TORSDOF 7
ENDMDL
