MODEL 1
REMARK VINA RESULT:      -3.6      0.000      0.000
REMARK  Name = 323032
REMARK  6 active torsions:
REMARK  status: ('A' for Active; 'I' for Inactive)
REMARK    1  A    between atoms: C_3  and  O_5
REMARK    2  A    between atoms: O_5  and  C_8
REMARK    3  A    between atoms: C_14  and  C_15
REMARK    4  A    between atoms: CA_16  and  N_17
REMARK    5  A    between atoms: CA_16  and  C_18
REMARK    6  A    between atoms: C_19  and  C_23
REMARK                            x       y       z     vdW  Elec       q    Type
REMARK                         _______ _______ _______ _____ _____    ______ ____
ROOT
ATOM      1  C   UNL     1      20.478  42.600  43.335  0.00  0.00    +0.000 C 
ATOM      2  CA  UNL     1      19.216  42.206  43.116  0.00  0.00    +0.000 C 
ENDROOT
BRANCH   1   8
ATOM      3  C   UNL     1      22.573  41.307  46.783  0.00  0.00    +0.000 A 
ATOM      4  C   UNL     1      22.107  42.618  46.718  0.00  0.00    +0.000 A 
ATOM      5  C   UNL     1      22.587  40.511  45.633  0.00  0.00    +0.000 A 
ATOM      6  C   UNL     1      21.504  43.082  45.545  0.00  0.00    +0.000 A 
ATOM      7  C   UNL     1      21.967  40.966  44.469  0.00  0.00    +0.000 A 
ATOM      8  C   UNL     1      21.378  42.237  44.437  0.00  0.00    +0.000 A 
BRANCH   3   9
ATOM      9  O   UNL     1      22.978  40.834  48.013  0.00  0.00    +0.000 OA
BRANCH   9  12
ATOM     10 BR   UNL     1      25.809  40.655  46.798  0.00  0.00    +0.000 Br
ATOM     11  C   UNL     1      25.225  41.596  48.338  0.00  0.00    +0.000 A 
ATOM     12  C   UNL     1      23.882  41.599  48.733  0.00  0.00    +0.000 A 
ATOM     13  C   UNL     1      26.181  42.301  49.081  0.00  0.00    +0.000 A 
ATOM     14  C   UNL     1      23.500  42.395  49.825  0.00  0.00    +0.000 A 
ATOM     15  C   UNL     1      25.798  43.027  50.210  0.00  0.00    +0.000 A 
ATOM     16  C   UNL     1      24.456  43.084  50.573  0.00  0.00    +0.000 A 
ENDBRANCH   9  12
ENDBRANCH   3   9
ENDBRANCH   1   8
BRANCH   2  17
ATOM     17  N   UNL     1      18.515  41.257  43.835  0.00  0.00    +0.000 N 
ATOM     18  C   UNL     1      17.935  41.484  45.077  0.00  0.00    +0.000 C 
ATOM     19  O   UNL     1      18.047  42.537  45.693  0.00  0.00    +0.000 OA
ATOM     20  H   UNL     1      18.420  40.360  43.441  0.00  0.00    +0.000 HD
BRANCH  18  21
ATOM     21  C   UNL     1      17.259  40.244  45.691  0.00  0.00    +0.000 C 
ATOM     22  C   UNL     1      18.290  39.460  46.545  0.00  0.00    +0.000 C 
ATOM     23  C   UNL     1      16.677  39.336  44.583  0.00  0.00    +0.000 C 
ATOM     24  C   UNL     1      16.087  40.645  46.627  0.00  0.00    +0.000 C 
ATOM     25  C   UNL     1      17.652  38.200  47.143  0.00  0.00    +0.000 C 
ATOM     26  C   UNL     1      16.049  38.074  45.198  0.00  0.00    +0.000 C 
ATOM     27  C   UNL     1      15.441  39.393  47.256  0.00  0.00    +0.000 C 
ATOM     28  C   UNL     1      17.126  37.319  45.996  0.00  0.00    +0.000 C 
ATOM     29  C   UNL     1      16.495  38.616  48.061  0.00  0.00    +0.000 C 
ATOM     30  C   UNL     1      14.904  38.479  46.142  0.00  0.00    +0.000 C 
ENDBRANCH  18  21
ENDBRANCH   2  17
BRANCH   2  31
ATOM     31  C   UNL     1      18.484  42.930  42.023  0.00  0.00    +0.000 C 
ATOM     32  O   UNL     1      18.724  44.063  41.640  0.00  0.00    +0.000 OA
ATOM     33  OXT UNL     1      17.488  42.168  41.514  0.00  0.00    +0.000 OA
ENDBRANCH   2  31
TORSDOF 6
ENDMDL
MODEL 2
REMARK VINA RESULT:      -3.2      0.947      1.782
REMARK  Name = 323032
REMARK  6 active torsions:
REMARK  status: ('A' for Active; 'I' for Inactive)
REMARK    1  A    between atoms: C_3  and  O_5
REMARK    2  A    between atoms: O_5  and  C_8
REMARK    3  A    between atoms: C_14  and  C_15
REMARK    4  A    between atoms: CA_16  and  N_17
REMARK    5  A    between atoms: CA_16  and  C_18
REMARK    6  A    between atoms: C_19  and  C_23
REMARK                            x       y       z     vdW  Elec       q    Type
REMARK                         _______ _______ _______ _____ _____    ______ ____
ROOT
ATOM      1  C   UNL     1      20.554  42.561  43.464  0.00  0.00    +0.000 C 
ATOM      2  CA  UNL     1      19.274  42.199  43.303  0.00  0.00    +0.000 C 
ENDROOT
BRANCH   1   8
ATOM      3  C   UNL     1      22.724  41.320  46.884  0.00  0.00    +0.000 A 
ATOM      4  C   UNL     1      22.088  42.559  46.892  0.00  0.00    +0.000 A 
ATOM      5  C   UNL     1      22.870  40.614  45.686  0.00  0.00    +0.000 A 
ATOM      6  C   UNL     1      21.456  43.019  45.732  0.00  0.00    +0.000 A 
ATOM      7  C   UNL     1      22.222  41.063  44.535  0.00  0.00    +0.000 A 
ATOM      8  C   UNL     1      21.469  42.245  44.568  0.00  0.00    +0.000 A 
BRANCH   3   9
ATOM      9  O   UNL     1      23.159  40.819  48.093  0.00  0.00    +0.000 OA
BRANCH   9  12
ATOM     10 BR   UNL     1      26.010  40.849  46.911  0.00  0.00    +0.000 Br
ATOM     11  C   UNL     1      25.354  41.701  48.474  0.00  0.00    +0.000 A 
ATOM     12  C   UNL     1      24.009  41.612  48.850  0.00  0.00    +0.000 A 
ATOM     13  C   UNL     1      26.258  42.434  49.252  0.00  0.00    +0.000 A 
ATOM     14  C   UNL     1      23.568  42.346  49.963  0.00  0.00    +0.000 A 
ATOM     15  C   UNL     1      25.820  43.098  50.400  0.00  0.00    +0.000 A 
ATOM     16  C   UNL     1      24.473  43.064  50.747  0.00  0.00    +0.000 A 
ENDBRANCH   9  12
ENDBRANCH   3   9
ENDBRANCH   1   8
BRANCH   2  17
ATOM     17  N   UNL     1      18.559  41.329  44.104  0.00  0.00    +0.000 N 
ATOM     18  C   UNL     1      18.771  39.957  44.158  0.00  0.00    +0.000 C 
ATOM     19  O   UNL     1      19.574  39.369  43.443  0.00  0.00    +0.000 OA
ATOM     20  H   UNL     1      17.853  41.707  44.676  0.00  0.00    +0.000 HD
BRANCH  18  21
ATOM     21  C   UNL     1      17.802  39.206  45.089  0.00  0.00    +0.000 C 
ATOM     22  C   UNL     1      16.344  39.637  44.778  0.00  0.00    +0.000 C 
ATOM     23  C   UNL     1      18.142  39.490  46.571  0.00  0.00    +0.000 C 
ATOM     24  C   UNL     1      17.890  37.671  44.878  0.00  0.00    +0.000 C 
ATOM     25  C   UNL     1      15.358  38.928  45.715  0.00  0.00    +0.000 C 
ATOM     26  C   UNL     1      17.139  38.780  47.497  0.00  0.00    +0.000 C 
ATOM     27  C   UNL     1      16.892  36.937  45.798  0.00  0.00    +0.000 C 
ATOM     28  C   UNL     1      15.721  39.276  47.170  0.00  0.00    +0.000 C 
ATOM     29  C   UNL     1      15.463  37.413  45.493  0.00  0.00    +0.000 C 
ATOM     30  C   UNL     1      17.215  37.261  47.265  0.00  0.00    +0.000 C 
ENDBRANCH  18  21
ENDBRANCH   2  17
BRANCH   2  31
ATOM     31  C   UNL     1      18.540  42.869  42.178  0.00  0.00    +0.000 C 
ATOM     32  O   UNL     1      18.777  43.984  41.744  0.00  0.00    +0.000 OA
ATOM     33  OXT UNL     1      17.545  42.083  41.706  0.00  0.00    +0.000 OA
ENDBRANCH   2  31
TORSDOF 6
ENDMDL
MODEL 3
REMARK VINA RESULT:      -2.5      2.424      3.819
REMARK  Name = 323032
REMARK  6 active torsions:
REMARK  status: ('A' for Active; 'I' for Inactive)
REMARK    1  A    between atoms: C_3  and  O_5
REMARK    2  A    between atoms: O_5  and  C_8
REMARK    3  A    between atoms: C_14  and  C_15
REMARK    4  A    between atoms: CA_16  and  N_17
REMARK    5  A    between atoms: CA_16  and  C_18
REMARK    6  A    between atoms: C_19  and  C_23
REMARK                            x       y       z     vdW  Elec       q    Type
REMARK                         _______ _______ _______ _____ _____    ______ ____
ROOT
ATOM      1  C   UNL     1      20.635  38.452  44.095  0.00  0.00    +0.000 C 
ATOM      2  CA  UNL     1      19.393  38.852  44.398  0.00  0.00    +0.000 C 
ENDROOT
BRANCH   1   8
ATOM      3  C   UNL     1      24.058  40.386  45.672  0.00  0.00    +0.000 A 
ATOM      4  C   UNL     1      23.197  41.095  44.838  0.00  0.00    +0.000 A 
ATOM      5  C   UNL     1      23.948  38.996  45.775  0.00  0.00    +0.000 A 
ATOM      6  C   UNL     1      22.122  40.436  44.233  0.00  0.00    +0.000 A 
ATOM      7  C   UNL     1      22.863  38.343  45.189  0.00  0.00    +0.000 A 
ATOM      8  C   UNL     1      21.917  39.071  44.455  0.00  0.00    +0.000 A 
BRANCH   3   9
ATOM      9  O   UNL     1      24.980  41.109  46.399  0.00  0.00    +0.000 OA
BRANCH   9  12
ATOM     10 BR   UNL     1      27.358  41.615  48.301  0.00  0.00    +0.000 Br
ATOM     11  C   UNL     1      25.510  41.934  48.585  0.00  0.00    +0.000 A 
ATOM     12  C   UNL     1      24.558  41.678  47.591  0.00  0.00    +0.000 A 
ATOM     13  C   UNL     1      25.114  42.443  49.828  0.00  0.00    +0.000 A 
ATOM     14  C   UNL     1      23.219  42.028  47.831  0.00  0.00    +0.000 A 
ATOM     15  C   UNL     1      23.768  42.715  50.079  0.00  0.00    +0.000 A 
ATOM     16  C   UNL     1      22.823  42.520  49.075  0.00  0.00    +0.000 A 
ENDBRANCH   9  12
ENDBRANCH   3   9
ENDBRANCH   1   8
BRANCH   2  17
ATOM     17  N   UNL     1      19.048  39.895  45.237  0.00  0.00    +0.000 N 
ATOM     18  C   UNL     1      18.835  41.202  44.818  0.00  0.00    +0.000 C 
ATOM     19  O   UNL     1      19.002  41.578  43.663  0.00  0.00    +0.000 OA
ATOM     20  H   UNL     1      18.944  39.697  46.196  0.00  0.00    +0.000 HD
BRANCH  18  21
ATOM     21  C   UNL     1      18.517  42.185  45.960  0.00  0.00    +0.000 C 
ATOM     22  C   UNL     1      18.365  41.404  47.291  0.00  0.00    +0.000 C 
ATOM     23  C   UNL     1      17.226  42.978  45.651  0.00  0.00    +0.000 C 
ATOM     24  C   UNL     1      19.661  43.217  46.152  0.00  0.00    +0.000 C 
ATOM     25  C   UNL     1      18.015  42.355  48.442  0.00  0.00    +0.000 C 
ATOM     26  C   UNL     1      16.883  43.921  46.817  0.00  0.00    +0.000 C 
ATOM     27  C   UNL     1      19.339  44.175  47.318  0.00  0.00    +0.000 C 
ATOM     28  C   UNL     1      16.706  43.087  48.097  0.00  0.00    +0.000 C 
ATOM     29  C   UNL     1      19.155  43.368  48.614  0.00  0.00    +0.000 C 
ATOM     30  C   UNL     1      18.031  44.925  47.018  0.00  0.00    +0.000 C 
ENDBRANCH  18  21
ENDBRANCH   2  17
BRANCH   2  31
ATOM     31  C   UNL     1      18.281  38.132  43.691  0.00  0.00    +0.000 C 
ATOM     32  O   UNL     1      18.202  36.924  43.544  0.00  0.00    +0.000 OA
ATOM     33  OXT UNL     1      17.366  39.002  43.204  0.00  0.00    +0.000 OA
ENDBRANCH   2  31
TORSDOF 6
ENDMDL
MODEL 4
REMARK VINA RESULT:      -2.1      3.077      8.047
REMARK  Name = 323032
REMARK  6 active torsions:
REMARK  status: ('A' for Active; 'I' for Inactive)
REMARK    1  A    between atoms: C_3  and  O_5
REMARK    2  A    between atoms: O_5  and  C_8
REMARK    3  A    between atoms: C_14  and  C_15
REMARK    4  A    between atoms: CA_16  and  N_17
REMARK    5  A    between atoms: CA_16  and  C_18
REMARK    6  A    between atoms: C_19  and  C_23
REMARK                            x       y       z     vdW  Elec       q    Type
REMARK                         _______ _______ _______ _____ _____    ______ ____
ROOT
ATOM      1  C   UNL     1      23.192  38.638  44.652  0.00  0.00    +0.000 C 
ATOM      2  CA  UNL     1      24.085  38.564  45.648  0.00  0.00    +0.000 C 
ENDROOT
BRANCH   1   8
ATOM      3  C   UNL     1      20.381  41.729  43.955  0.00  0.00    +0.000 A 
ATOM      4  C   UNL     1      20.309  40.558  43.204  0.00  0.00    +0.000 A 
ATOM      5  C   UNL     1      21.512  41.994  44.733  0.00  0.00    +0.000 A 
ATOM      6  C   UNL     1      21.292  39.576  43.357  0.00  0.00    +0.000 A 
ATOM      7  C   UNL     1      22.483  41.005  44.902  0.00  0.00    +0.000 A 
ATOM      8  C   UNL     1      22.349  39.771  44.251  0.00  0.00    +0.000 A 
BRANCH   3   9
ATOM      9  O   UNL     1      19.294  42.577  43.920  0.00  0.00    +0.000 OA
BRANCH   9  12
ATOM     10 BR   UNL     1      16.863  40.680  43.808  0.00  0.00    +0.000 Br
ATOM     11  C   UNL     1      17.353  41.917  45.159  0.00  0.00    +0.000 A 
ATOM     12  C   UNL     1      18.522  42.682  45.066  0.00  0.00    +0.000 A 
ATOM     13  C   UNL     1      16.510  42.047  46.270  0.00  0.00    +0.000 A 
ATOM     14  C   UNL     1      18.877  43.507  46.146  0.00  0.00    +0.000 A 
ATOM     15  C   UNL     1      16.838  42.927  47.302  0.00  0.00    +0.000 A 
ATOM     16  C   UNL     1      18.029  43.647  47.246  0.00  0.00    +0.000 A 
ENDBRANCH   9  12
ENDBRANCH   3   9
ENDBRANCH   1   8
BRANCH   2  17
ATOM     17  N   UNL     1      24.500  39.605  46.458  0.00  0.00    +0.000 N 
ATOM     18  C   UNL     1      23.894  39.956  47.657  0.00  0.00    +0.000 C 
ATOM     19  O   UNL     1      22.881  39.415  48.086  0.00  0.00    +0.000 OA
ATOM     20  H   UNL     1      25.278  40.132  46.165  0.00  0.00    +0.000 HD
BRANCH  18  21
ATOM     21  C   UNL     1      24.514  41.189  48.339  0.00  0.00    +0.000 C 
ATOM     22  C   UNL     1      23.922  42.480  47.716  0.00  0.00    +0.000 C 
ATOM     23  C   UNL     1      26.054  41.176  48.189  0.00  0.00    +0.000 C 
ATOM     24  C   UNL     1      24.196  41.215  49.858  0.00  0.00    +0.000 C 
ATOM     25  C   UNL     1      24.548  43.726  48.354  0.00  0.00    +0.000 C 
ATOM     26  C   UNL     1      26.665  42.436  48.826  0.00  0.00    +0.000 C 
ATOM     27  C   UNL     1      24.801  42.471  50.519  0.00  0.00    +0.000 C 
ATOM     28  C   UNL     1      26.072  43.679  48.141  0.00  0.00    +0.000 C 
ATOM     29  C   UNL     1      24.225  43.732  49.854  0.00  0.00    +0.000 C 
ATOM     30  C   UNL     1      26.326  42.468  50.326  0.00  0.00    +0.000 C 
ENDBRANCH  18  21
ENDBRANCH   2  17
BRANCH   2  31
ATOM     31  C   UNL     1      24.624  37.195  45.946  0.00  0.00    +0.000 C 
ATOM     32  O   UNL     1      25.613  36.697  45.434  0.00  0.00    +0.000 OA
ATOM     33  OXT UNL     1      23.853  36.552  46.853  0.00  0.00    +0.000 OA
ENDBRANCH   2  31
TORSDOF 6
ENDMDL
MODEL 5
REMARK VINA RESULT:      -2.1      2.933      6.739
REMARK  Name = 323032
REMARK  6 active torsions:
REMARK  status: ('A' for Active; 'I' for Inactive)
REMARK    1  A    between atoms: C_3  and  O_5
REMARK    2  A    between atoms: O_5  and  C_8
REMARK    3  A    between atoms: C_14  and  C_15
REMARK    4  A    between atoms: CA_16  and  N_17
REMARK    5  A    between atoms: CA_16  and  C_18
REMARK    6  A    between atoms: C_19  and  C_23
REMARK                            x       y       z     vdW  Elec       q    Type
REMARK                         _______ _______ _______ _____ _____    ______ ____
ROOT
ATOM      1  C   UNL     1      23.747  40.958  46.086  0.00  0.00    +0.000 C 
ATOM      2  CA  UNL     1      23.360  41.828  47.029  0.00  0.00    +0.000 C 
ENDROOT
BRANCH   1   8
ATOM      3  C   UNL     1      20.928  39.176  43.474  0.00  0.00    +0.000 A 
ATOM      4  C   UNL     1      21.614  38.378  44.387  0.00  0.00    +0.000 A 
ATOM      5  C   UNL     1      21.348  40.488  43.238  0.00  0.00    +0.000 A 
ATOM      6  C   UNL     1      22.617  38.940  45.182  0.00  0.00    +0.000 A 
ATOM      7  C   UNL     1      22.335  41.055  44.045  0.00  0.00    +0.000 A 
ATOM      8  C   UNL     1      22.939  40.295  45.055  0.00  0.00    +0.000 A 
BRANCH   3   9
ATOM      9  O   UNL     1      19.821  38.633  42.857  0.00  0.00    +0.000 OA
BRANCH   9  12
ATOM     10 BR   UNL     1      18.089  41.187  42.891  0.00  0.00    +0.000 Br
ATOM     11  C   UNL     1      17.801  39.535  43.777  0.00  0.00    +0.000 A 
ATOM     12  C   UNL     1      18.679  38.455  43.622  0.00  0.00    +0.000 A 
ATOM     13  C   UNL     1      16.673  39.416  44.598  0.00  0.00    +0.000 A 
ATOM     14  C   UNL     1      18.356  37.229  44.227  0.00  0.00    +0.000 A 
ATOM     15  C   UNL     1      16.406  38.213  45.254  0.00  0.00    +0.000 A 
ATOM     16  C   UNL     1      17.240  37.116  45.057  0.00  0.00    +0.000 A 
ENDBRANCH   9  12
ENDBRANCH   3   9
ENDBRANCH   1   8
BRANCH   2  17
ATOM     17  N   UNL     1      22.105  42.393  47.159  0.00  0.00    +0.000 N 
ATOM     18  C   UNL     1      20.929  41.669  47.301  0.00  0.00    +0.000 C 
ATOM     19  O   UNL     1      20.879  40.445  47.255  0.00  0.00    +0.000 OA
ATOM     20  H   UNL     1      22.041  43.376  47.151  0.00  0.00    +0.000 HD
BRANCH  18  21
ATOM     21  C   UNL     1      19.659  42.538  47.369  0.00  0.00    +0.000 C 
ATOM     22  C   UNL     1      18.426  41.689  46.964  0.00  0.00    +0.000 C 
ATOM     23  C   UNL     1      19.792  43.770  46.443  0.00  0.00    +0.000 C 
ATOM     24  C   UNL     1      19.412  43.064  48.808  0.00  0.00    +0.000 C 
ATOM     25  C   UNL     1      17.150  42.539  46.992  0.00  0.00    +0.000 C 
ATOM     26  C   UNL     1      18.502  44.606  46.475  0.00  0.00    +0.000 C 
ATOM     27  C   UNL     1      18.121  43.908  48.865  0.00  0.00    +0.000 C 
ATOM     28  C   UNL     1      17.325  43.725  46.026  0.00  0.00    +0.000 C 
ATOM     29  C   UNL     1      16.924  43.052  48.421  0.00  0.00    +0.000 C 
ATOM     30  C   UNL     1      18.250  45.104  47.908  0.00  0.00    +0.000 C 
ENDBRANCH  18  21
ENDBRANCH   2  17
BRANCH   2  31
ATOM     31  C   UNL     1      24.381  42.155  48.080  0.00  0.00    +0.000 C 
ATOM     32  O   UNL     1      25.580  42.270  47.889  0.00  0.00    +0.000 OA
ATOM     33  OXT UNL     1      23.805  42.286  49.297  0.00  0.00    +0.000 OA
ENDBRANCH   2  31
TORSDOF 6
ENDMDL
