MODEL 1
REMARK VINA RESULT:      -7.9      0.000      0.000
REMARK  Name = 323201
REMARK  8 active torsions:
REMARK  status: ('A' for Active; 'I' for Inactive)
REMARK    1  A    between atoms: C_3  and  O_5
REMARK    2  A    between atoms: O_5  and  C_8
REMARK    3  A    between atoms: C_15  and  C_16
REMARK    4  A    between atoms: CA_17  and  N_18
REMARK    5  A    between atoms: CA_17  and  C_19
REMARK    6  A    between atoms: C_20  and  C_24
REMARK    7  A    between atoms: C_24  and  C_25
REMARK    8  A    between atoms: C_25  and  C_26
REMARK                            x       y       z     vdW  Elec       q    Type
REMARK                         _______ _______ _______ _____ _____    ______ ____
ROOT
ATOM      1  C   UNL     1      22.588  42.229  48.289  0.00  0.00    +0.000 C 
ATOM      2  CA  UNL     1      23.698  41.719  47.733  0.00  0.00    +0.000 C 
ENDROOT
BRANCH   1   8
ATOM      3  C   UNL     1      18.543  41.531  47.196  0.00  0.00    +0.000 A 
ATOM      4  C   UNL     1      18.862  42.644  47.979  0.00  0.00    +0.000 A 
ATOM      5  C   UNL     1      19.505  40.553  46.956  0.00  0.00    +0.000 A 
ATOM      6  C   UNL     1      20.182  42.855  48.389  0.00  0.00    +0.000 A 
ATOM      7  C   UNL     1      20.822  40.762  47.365  0.00  0.00    +0.000 A 
ATOM      8  C   UNL     1      21.173  41.931  48.050  0.00  0.00    +0.000 A 
BRANCH   3   9
ATOM      9  O   UNL     1      17.301  41.305  46.658  0.00  0.00    +0.000 OA
BRANCH   9  12
ATOM     10 BR   UNL     1      16.633  38.512  45.643  0.00  0.00    +0.000 Br
ATOM     11  C   UNL     1      16.803  40.127  44.657  0.00  0.00    +0.000 A 
ATOM     12  C   UNL     1      17.120  41.338  45.290  0.00  0.00    +0.000 A 
ATOM     13  C   UNL     1      16.609  40.075  43.276  0.00  0.00    +0.000 A 
ATOM     14  C   UNL     1      17.299  42.489  44.506  0.00  0.00    +0.000 A 
ATOM     15  C   UNL     1      16.734  41.236  42.527  0.00  0.00    +0.000 A 
ATOM     16  C   UNL     1      17.078  42.442  43.126  0.00  0.00    +0.000 A 
ATOM     17  F   UNL     1      16.531  41.194  41.203  0.00  0.00    +0.000 F 
ENDBRANCH   9  12
ENDBRANCH   3   9
ENDBRANCH   1   8
BRANCH   2  18
ATOM     18  N   UNL     1      23.797  40.806  46.688  0.00  0.00    +0.000 N 
ATOM     19  C   UNL     1      23.753  39.429  46.806  0.00  0.00    +0.000 C 
ATOM     20  O   UNL     1      23.535  38.814  47.841  0.00  0.00    +0.000 OA
ATOM     21  H   UNL     1      23.908  41.175  45.782  0.00  0.00    +0.000 HD
BRANCH  19  22
ATOM     22  C   UNL     1      23.861  38.682  45.489  0.00  0.00    +0.000 C 
BRANCH  22  23
ATOM     23  C   UNL     1      23.896  39.723  44.367  0.00  0.00    +0.000 C 
BRANCH  23  24
ATOM     24  C   UNL     1      22.577  39.892  43.626  0.00  0.00    +0.000 C 
ATOM     25  C   UNL     1      21.954  41.264  43.894  0.00  0.00    +0.000 C 
ATOM     26  C   UNL     1      21.471  38.944  44.080  0.00  0.00    +0.000 C 
ATOM     27  C   UNL     1      20.480  41.100  43.542  0.00  0.00    +0.000 C 
ATOM     28  C   UNL     1      20.207  39.596  43.536  0.00  0.00    +0.000 C 
ENDBRANCH  23  24
ENDBRANCH  22  23
ENDBRANCH  19  22
ENDBRANCH   2  18
BRANCH   2  29
ATOM     29  C   UNL     1      24.979  42.190  48.375  0.00  0.00    +0.000 C 
ATOM     30  O   UNL     1      25.063  42.733  49.464  0.00  0.00    +0.000 OA
ATOM     31  OXT UNL     1      26.057  41.943  47.594  0.00  0.00    +0.000 OA
ENDBRANCH   2  29
TORSDOF 8
ENDMDL
MODEL 2
REMARK VINA RESULT:      -7.3      1.704      2.266
REMARK  Name = 323201
REMARK  8 active torsions:
REMARK  status: ('A' for Active; 'I' for Inactive)
REMARK    1  A    between atoms: C_3  and  O_5
REMARK    2  A    between atoms: O_5  and  C_8
REMARK    3  A    between atoms: C_15  and  C_16
REMARK    4  A    between atoms: CA_17  and  N_18
REMARK    5  A    between atoms: CA_17  and  C_19
REMARK    6  A    between atoms: C_20  and  C_24
REMARK    7  A    between atoms: C_24  and  C_25
REMARK    8  A    between atoms: C_25  and  C_26
REMARK                            x       y       z     vdW  Elec       q    Type
REMARK                         _______ _______ _______ _____ _____    ______ ____
ROOT
ATOM      1  C   UNL     1      23.098  42.557  47.998  0.00  0.00    +0.000 C 
ATOM      2  CA  UNL     1      24.068  41.689  47.671  0.00  0.00    +0.000 C 
ENDROOT
BRANCH   1   8
ATOM      3  C   UNL     1      19.074  42.435  46.641  0.00  0.00    +0.000 A 
ATOM      4  C   UNL     1      20.103  42.673  45.724  0.00  0.00    +0.000 A 
ATOM      5  C   UNL     1      19.346  42.448  48.007  0.00  0.00    +0.000 A 
ATOM      6  C   UNL     1      21.425  42.768  46.168  0.00  0.00    +0.000 A 
ATOM      7  C   UNL     1      20.665  42.543  48.450  0.00  0.00    +0.000 A 
ATOM      8  C   UNL     1      21.713  42.666  47.531  0.00  0.00    +0.000 A 
BRANCH   3   9
ATOM      9  O   UNL     1      17.767  42.218  46.284  0.00  0.00    +0.000 OA
BRANCH   9  12
ATOM     10 BR   UNL     1      17.076  41.705  43.362  0.00  0.00    +0.000 Br
ATOM     11  C   UNL     1      16.926  40.527  44.845  0.00  0.00    +0.000 A 
ATOM     12  C   UNL     1      17.292  40.930  46.137  0.00  0.00    +0.000 A 
ATOM     13  C   UNL     1      16.434  39.242  44.614  0.00  0.00    +0.000 A 
ATOM     14  C   UNL     1      17.100  40.041  47.208  0.00  0.00    +0.000 A 
ATOM     15  C   UNL     1      16.305  38.360  45.677  0.00  0.00    +0.000 A 
ATOM     16  C   UNL     1      16.631  38.745  46.971  0.00  0.00    +0.000 A 
ATOM     17  F   UNL     1      15.848  37.120  45.456  0.00  0.00    +0.000 F 
ENDBRANCH   9  12
ENDBRANCH   3   9
ENDBRANCH   1   8
BRANCH   2  18
ATOM     18  N   UNL     1      24.038  40.688  46.706  0.00  0.00    +0.000 N 
ATOM     19  C   UNL     1      23.745  39.354  46.928  0.00  0.00    +0.000 C 
ATOM     20  O   UNL     1      23.384  38.878  47.995  0.00  0.00    +0.000 OA
ATOM     21  H   UNL     1      24.246  40.953  45.780  0.00  0.00    +0.000 HD
BRANCH  19  22
ATOM     22  C   UNL     1      23.764  38.491  45.680  0.00  0.00    +0.000 C 
BRANCH  22  23
ATOM     23  C   UNL     1      23.752  39.427  44.468  0.00  0.00    +0.000 C 
BRANCH  23  24
ATOM     24  C   UNL     1      22.441  39.436  43.695  0.00  0.00    +0.000 C 
ATOM     25  C   UNL     1      22.065  40.849  43.244  0.00  0.00    +0.000 C 
ATOM     26  C   UNL     1      21.221  39.025  44.514  0.00  0.00    +0.000 C 
ATOM     27  C   UNL     1      20.567  40.785  42.967  0.00  0.00    +0.000 C 
ATOM     28  C   UNL     1      20.053  39.535  43.681  0.00  0.00    +0.000 C 
ENDBRANCH  23  24
ENDBRANCH  22  23
ENDBRANCH  19  22
ENDBRANCH   2  18
BRANCH   2  29
ATOM     29  C   UNL     1      25.320  41.824  48.503  0.00  0.00    +0.000 C 
ATOM     30  O   UNL     1      26.399  41.323  48.236  0.00  0.00    +0.000 OA
ATOM     31  OXT UNL     1      25.115  42.578  49.607  0.00  0.00    +0.000 OA
ENDBRANCH   2  29
TORSDOF 8
ENDMDL
MODEL 3
REMARK VINA RESULT:      -7.1      1.910      2.649
REMARK  Name = 323201
REMARK  8 active torsions:
REMARK  status: ('A' for Active; 'I' for Inactive)
REMARK    1  A    between atoms: C_3  and  O_5
REMARK    2  A    between atoms: O_5  and  C_8
REMARK    3  A    between atoms: C_15  and  C_16
REMARK    4  A    between atoms: CA_17  and  N_18
REMARK    5  A    between atoms: CA_17  and  C_19
REMARK    6  A    between atoms: C_20  and  C_24
REMARK    7  A    between atoms: C_24  and  C_25
REMARK    8  A    between atoms: C_25  and  C_26
REMARK                            x       y       z     vdW  Elec       q    Type
REMARK                         _______ _______ _______ _____ _____    ______ ____
ROOT
ATOM      1  C   UNL     1      22.211  42.600  48.903  0.00  0.00    +0.000 C 
ATOM      2  CA  UNL     1      23.515  42.315  48.763  0.00  0.00    +0.000 C 
ENDROOT
BRANCH   1   8
ATOM      3  C   UNL     1      18.696  41.534  46.769  0.00  0.00    +0.000 A 
ATOM      4  C   UNL     1      19.828  40.717  46.683  0.00  0.00    +0.000 A 
ATOM      5  C   UNL     1      18.788  42.786  47.373  0.00  0.00    +0.000 A 
ATOM      6  C   UNL     1      21.006  41.086  47.339  0.00  0.00    +0.000 A 
ATOM      7  C   UNL     1      19.964  43.154  48.027  0.00  0.00    +0.000 A 
ATOM      8  C   UNL     1      21.065  42.291  48.044  0.00  0.00    +0.000 A 
BRANCH   3   9
ATOM      9  O   UNL     1      17.470  41.198  46.252  0.00  0.00    +0.000 OA
BRANCH   9  12
ATOM     10 BR   UNL     1      17.896  40.669  43.283  0.00  0.00    +0.000 Br
ATOM     11  C   UNL     1      17.320  39.466  44.636  0.00  0.00    +0.000 A 
ATOM     12  C   UNL     1      17.175  39.880  45.967  0.00  0.00    +0.000 A 
ATOM     13  C   UNL     1      17.038  38.150  44.265  0.00  0.00    +0.000 A 
ATOM     14  C   UNL     1      16.684  38.967  46.915  0.00  0.00    +0.000 A 
ATOM     15  C   UNL     1      16.608  37.249  45.228  0.00  0.00    +0.000 A 
ATOM     16  C   UNL     1      16.427  37.642  46.548  0.00  0.00    +0.000 A 
ATOM     17  F   UNL     1      16.352  35.980  44.879  0.00  0.00    +0.000 F 
ENDBRANCH   9  12
ENDBRANCH   3   9
ENDBRANCH   1   8
BRANCH   2  18
ATOM     18  N   UNL     1      24.153  41.708  47.686  0.00  0.00    +0.000 N 
ATOM     19  C   UNL     1      24.474  40.367  47.584  0.00  0.00    +0.000 C 
ATOM     20  O   UNL     1      24.165  39.502  48.391  0.00  0.00    +0.000 OA
ATOM     21  H   UNL     1      24.399  42.287  46.929  0.00  0.00    +0.000 HD
BRANCH  19  22
ATOM     22  C   UNL     1      25.148  39.981  46.280  0.00  0.00    +0.000 C 
BRANCH  22  23
ATOM     23  C   UNL     1      24.233  38.985  45.561  0.00  0.00    +0.000 C 
BRANCH  23  24
ATOM     24  C   UNL     1      22.914  39.575  45.084  0.00  0.00    +0.000 C 
ATOM     25  C   UNL     1      22.202  38.640  44.105  0.00  0.00    +0.000 C 
ATOM     26  C   UNL     1      23.055  40.853  44.261  0.00  0.00    +0.000 C 
ATOM     27  C   UNL     1      21.224  39.535  43.350  0.00  0.00    +0.000 C 
ATOM     28  C   UNL     1      21.706  40.969  43.564  0.00  0.00    +0.000 C 
ENDBRANCH  23  24
ENDBRANCH  22  23
ENDBRANCH  19  22
ENDBRANCH   2  18
BRANCH   2  29
ATOM     29  C   UNL     1      24.356  42.680  49.961  0.00  0.00    +0.000 C 
ATOM     30  O   UNL     1      23.982  42.646  51.121  0.00  0.00    +0.000 OA
ATOM     31  OXT UNL     1      25.605  43.062  49.605  0.00  0.00    +0.000 OA
ENDBRANCH   2  29
TORSDOF 8
ENDMDL
MODEL 4
REMARK VINA RESULT:      -7.1      3.740      7.611
REMARK  Name = 323201
REMARK  8 active torsions:
REMARK  status: ('A' for Active; 'I' for Inactive)
REMARK    1  A    between atoms: C_3  and  O_5
REMARK    2  A    between atoms: O_5  and  C_8
REMARK    3  A    between atoms: C_15  and  C_16
REMARK    4  A    between atoms: CA_17  and  N_18
REMARK    5  A    between atoms: CA_17  and  C_19
REMARK    6  A    between atoms: C_20  and  C_24
REMARK    7  A    between atoms: C_24  and  C_25
REMARK    8  A    between atoms: C_25  and  C_26
REMARK                            x       y       z     vdW  Elec       q    Type
REMARK                         _______ _______ _______ _____ _____    ______ ____
ROOT
ATOM      1  C   UNL     1      18.836  41.308  42.790  0.00  0.00    +0.000 C 
ATOM      2  CA  UNL     1      17.544  41.042  43.039  0.00  0.00    +0.000 C 
ENDROOT
BRANCH   1   8
ATOM      3  C   UNL     1      22.039  40.534  45.470  0.00  0.00    +0.000 A 
ATOM      4  C   UNL     1      21.431  41.793  45.470  0.00  0.00    +0.000 A 
ATOM      5  C   UNL     1      21.740  39.619  44.464  0.00  0.00    +0.000 A 
ATOM      6  C   UNL     1      20.412  42.076  44.556  0.00  0.00    +0.000 A 
ATOM      7  C   UNL     1      20.723  39.901  43.551  0.00  0.00    +0.000 A 
ATOM      8  C   UNL     1      20.030  41.115  43.616  0.00  0.00    +0.000 A 
BRANCH   3   9
ATOM      9  O   UNL     1      22.966  40.133  46.398  0.00  0.00    +0.000 OA
BRANCH   9  12
ATOM     10 BR   UNL     1      25.980  40.543  46.230  0.00  0.00    +0.000 Br
ATOM     11  C   UNL     1      24.743  41.302  47.455  0.00  0.00    +0.000 A 
ATOM     12  C   UNL     1      23.374  41.002  47.391  0.00  0.00    +0.000 A 
ATOM     13  C   UNL     1      25.236  42.169  48.432  0.00  0.00    +0.000 A 
ATOM     14  C   UNL     1      22.513  41.539  48.362  0.00  0.00    +0.000 A 
ATOM     15  C   UNL     1      24.359  42.734  49.347  0.00  0.00    +0.000 A 
ATOM     16  C   UNL     1      23.004  42.428  49.323  0.00  0.00    +0.000 A 
ATOM     17  F   UNL     1      24.826  43.580  50.275  0.00  0.00    +0.000 F 
ENDBRANCH   9  12
ENDBRANCH   3   9
ENDBRANCH   1   8
BRANCH   2  18
ATOM     18  N   UNL     1      16.971  40.581  44.219  0.00  0.00    +0.000 N 
ATOM     19  C   UNL     1      17.023  39.282  44.692  0.00  0.00    +0.000 C 
ATOM     20  O   UNL     1      17.654  38.368  44.181  0.00  0.00    +0.000 OA
ATOM     21  H   UNL     1      16.485  41.239  44.767  0.00  0.00    +0.000 HD
BRANCH  19  22
ATOM     22  C   UNL     1      16.328  39.071  46.025  0.00  0.00    +0.000 C 
BRANCH  22  23
ATOM     23  C   UNL     1      17.194  39.721  47.108  0.00  0.00    +0.000 C 
BRANCH  23  24
ATOM     24  C   UNL     1      17.687  41.119  46.763  0.00  0.00    +0.000 C 
ATOM     25  C   UNL     1      18.733  41.609  47.766  0.00  0.00    +0.000 C 
ATOM     26  C   UNL     1      16.620  42.206  46.856  0.00  0.00    +0.000 C 
ATOM     27  C   UNL     1      18.741  43.126  47.613  0.00  0.00    +0.000 C 
ATOM     28  C   UNL     1      17.435  43.491  46.908  0.00  0.00    +0.000 C 
ENDBRANCH  23  24
ENDBRANCH  22  23
ENDBRANCH  19  22
ENDBRANCH   2  18
BRANCH   2  29
ATOM     29  C   UNL     1      16.634  41.248  41.852  0.00  0.00    +0.000 C 
ATOM     30  O   UNL     1      15.484  40.850  41.770  0.00  0.00    +0.000 OA
ATOM     31  OXT UNL     1      17.244  41.938  40.861  0.00  0.00    +0.000 OA
ENDBRANCH   2  29
TORSDOF 8
ENDMDL
MODEL 5
REMARK VINA RESULT:      -6.6      3.844      7.693
REMARK  Name = 323201
REMARK  8 active torsions:
REMARK  status: ('A' for Active; 'I' for Inactive)
REMARK    1  A    between atoms: C_3  and  O_5
REMARK    2  A    between atoms: O_5  and  C_8
REMARK    3  A    between atoms: C_15  and  C_16
REMARK    4  A    between atoms: CA_17  and  N_18
REMARK    5  A    between atoms: CA_17  and  C_19
REMARK    6  A    between atoms: C_20  and  C_24
REMARK    7  A    between atoms: C_24  and  C_25
REMARK    8  A    between atoms: C_25  and  C_26
REMARK                            x       y       z     vdW  Elec       q    Type
REMARK                         _______ _______ _______ _____ _____    ______ ____
ROOT
ATOM      1  C   UNL     1      19.180  41.540  42.871  0.00  0.00    +0.000 C 
ATOM      2  CA  UNL     1      17.889  41.406  43.213  0.00  0.00    +0.000 C 
ENDROOT
BRANCH   1   8
ATOM      3  C   UNL     1      22.496  41.022  45.474  0.00  0.00    +0.000 A 
ATOM      4  C   UNL     1      21.690  42.156  45.605  0.00  0.00    +0.000 A 
ATOM      5  C   UNL     1      22.341  40.183  44.373  0.00  0.00    +0.000 A 
ATOM      6  C   UNL     1      20.628  42.363  44.719  0.00  0.00    +0.000 A 
ATOM      7  C   UNL     1      21.282  40.389  43.489  0.00  0.00    +0.000 A 
ATOM      8  C   UNL     1      20.399  41.458  43.680  0.00  0.00    +0.000 A 
BRANCH   3   9
ATOM      9  O   UNL     1      23.487  40.683  46.360  0.00  0.00    +0.000 OA
BRANCH   9  12
ATOM     10 BR   UNL     1      26.456  41.100  46.902  0.00  0.00    +0.000 Br
ATOM     11  C   UNL     1      24.966  41.686  47.925  0.00  0.00    +0.000 A 
ATOM     12  C   UNL     1      23.651  41.403  47.527  0.00  0.00    +0.000 A 
ATOM     13  C   UNL     1      25.216  42.406  49.094  0.00  0.00    +0.000 A 
ATOM     14  C   UNL     1      22.589  41.803  48.354  0.00  0.00    +0.000 A 
ATOM     15  C   UNL     1      24.150  42.841  49.867  0.00  0.00    +0.000 A 
ATOM     16  C   UNL     1      22.839  42.547  49.511  0.00  0.00    +0.000 A 
ATOM     17  F   UNL     1      24.386  43.548  50.981  0.00  0.00    +0.000 F 
ENDBRANCH   9  12
ENDBRANCH   3   9
ENDBRANCH   1   8
BRANCH   2  18
ATOM     18  N   UNL     1      17.348  41.239  44.483  0.00  0.00    +0.000 N 
ATOM     19  C   UNL     1      17.096  42.247  45.397  0.00  0.00    +0.000 C 
ATOM     20  O   UNL     1      17.233  43.444  45.186  0.00  0.00    +0.000 OA
ATOM     21  H   UNL     1      17.124  40.320  44.757  0.00  0.00    +0.000 HD
BRANCH  19  22
ATOM     22  C   UNL     1      16.477  41.773  46.699  0.00  0.00    +0.000 C 
BRANCH  22  23
ATOM     23  C   UNL     1      17.476  40.826  47.370  0.00  0.00    +0.000 C 
BRANCH  23  24
ATOM     24  C   UNL     1      17.256  39.354  47.052  0.00  0.00    +0.000 C 
ATOM     25  C   UNL     1      18.114  38.900  45.869  0.00  0.00    +0.000 C 
ATOM     26  C   UNL     1      15.847  39.014  46.575  0.00  0.00    +0.000 C 
ATOM     27  C   UNL     1      17.438  37.631  45.360  0.00  0.00    +0.000 C 
ATOM     28  C   UNL     1      16.018  37.647  45.927  0.00  0.00    +0.000 C 
ENDBRANCH  23  24
ENDBRANCH  22  23
ENDBRANCH  19  22
ENDBRANCH   2  18
BRANCH   2  29
ATOM     29  C   UNL     1      16.939  41.407  42.041  0.00  0.00    +0.000 C 
ATOM     30  O   UNL     1      15.843  40.871  42.023  0.00  0.00    +0.000 OA
ATOM     31  OXT UNL     1      17.443  42.081  40.981  0.00  0.00    +0.000 OA
ENDBRANCH   2  29
TORSDOF 8
ENDMDL
MODEL 6
REMARK VINA RESULT:      -5.9      3.670      7.295
REMARK  Name = 323201
REMARK  8 active torsions:
REMARK  status: ('A' for Active; 'I' for Inactive)
REMARK    1  A    between atoms: C_3  and  O_5
REMARK    2  A    between atoms: O_5  and  C_8
REMARK    3  A    between atoms: C_15  and  C_16
REMARK    4  A    between atoms: CA_17  and  N_18
REMARK    5  A    between atoms: CA_17  and  C_19
REMARK    6  A    between atoms: C_20  and  C_24
REMARK    7  A    between atoms: C_24  and  C_25
REMARK    8  A    between atoms: C_25  and  C_26
REMARK                            x       y       z     vdW  Elec       q    Type
REMARK                         _______ _______ _______ _____ _____    ______ ____
ROOT
ATOM      1  C   UNL     1      18.076  39.504  46.899  0.00  0.00    +0.000 C 
ATOM      2  CA  UNL     1      17.309  39.282  45.821  0.00  0.00    +0.000 C 
ENDROOT
BRANCH   1   8
ATOM      3  C   UNL     1      21.369  41.997  47.893  0.00  0.00    +0.000 A 
ATOM      4  C   UNL     1      20.082  42.540  47.856  0.00  0.00    +0.000 A 
ATOM      5  C   UNL     1      21.594  40.711  47.406  0.00  0.00    +0.000 A 
ATOM      6  C   UNL     1      18.998  41.742  47.479  0.00  0.00    +0.000 A 
ATOM      7  C   UNL     1      20.513  39.915  47.029  0.00  0.00    +0.000 A 
ATOM      8  C   UNL     1      19.207  40.414  47.099  0.00  0.00    +0.000 A 
BRANCH   3   9
ATOM      9  O   UNL     1      22.471  42.672  48.354  0.00  0.00    +0.000 OA
BRANCH   9  12
ATOM     10 BR   UNL     1      24.238  43.246  50.768  0.00  0.00    +0.000 Br
ATOM     11  C   UNL     1      24.682  42.345  49.155  0.00  0.00    +0.000 A 
ATOM     12  C   UNL     1      23.737  42.167  48.135  0.00  0.00    +0.000 A 
ATOM     13  C   UNL     1      25.985  41.867  49.009  0.00  0.00    +0.000 A 
ATOM     14  C   UNL     1      24.136  41.553  46.937  0.00  0.00    +0.000 A 
ATOM     15  C   UNL     1      26.343  41.213  47.840  0.00  0.00    +0.000 A 
ATOM     16  C   UNL     1      25.435  41.051  46.802  0.00  0.00    +0.000 A 
ATOM     17  F   UNL     1      27.589  40.737  47.703  0.00  0.00    +0.000 F 
ENDBRANCH   9  12
ENDBRANCH   3   9
ENDBRANCH   1   8
BRANCH   2  18
ATOM     18  N   UNL     1      17.449  39.808  44.541  0.00  0.00    +0.000 N 
ATOM     19  C   UNL     1      17.040  41.065  44.131  0.00  0.00    +0.000 C 
ATOM     20  O   UNL     1      16.573  41.929  44.860  0.00  0.00    +0.000 OA
ATOM     21  H   UNL     1      17.878  39.234  43.865  0.00  0.00    +0.000 HD
BRANCH  19  22
ATOM     22  C   UNL     1      17.344  41.381  42.679  0.00  0.00    +0.000 C 
BRANCH  22  23
ATOM     23  C   UNL     1      18.265  42.605  42.652  0.00  0.00    +0.000 C 
BRANCH  23  24
ATOM     24  C   UNL     1      19.737  42.287  42.871  0.00  0.00    +0.000 C 
ATOM     25  C   UNL     1      19.994  40.779  42.867  0.00  0.00    +0.000 C 
ATOM     26  C   UNL     1      20.277  42.701  44.237  0.00  0.00    +0.000 C 
ATOM     27  C   UNL     1      21.330  40.607  43.582  0.00  0.00    +0.000 C 
ATOM     28  C   UNL     1      21.568  41.902  44.358  0.00  0.00    +0.000 C 
ENDBRANCH  23  24
ENDBRANCH  22  23
ENDBRANCH  19  22
ENDBRANCH   2  18
BRANCH   2  29
ATOM     29  C   UNL     1      16.137  38.368  46.078  0.00  0.00    +0.000 C 
ATOM     30  O   UNL     1      15.976  37.270  45.571  0.00  0.00    +0.000 OA
ATOM     31  OXT UNL     1      15.257  38.907  46.953  0.00  0.00    +0.000 OA
ENDBRANCH   2  29
TORSDOF 8
ENDMDL
MODEL 7
REMARK VINA RESULT:      -5.5      2.000      2.631
REMARK  Name = 323201
REMARK  8 active torsions:
REMARK  status: ('A' for Active; 'I' for Inactive)
REMARK    1  A    between atoms: C_3  and  O_5
REMARK    2  A    between atoms: O_5  and  C_8
REMARK    3  A    between atoms: C_15  and  C_16
REMARK    4  A    between atoms: CA_17  and  N_18
REMARK    5  A    between atoms: CA_17  and  C_19
REMARK    6  A    between atoms: C_20  and  C_24
REMARK    7  A    between atoms: C_24  and  C_25
REMARK    8  A    between atoms: C_25  and  C_26
REMARK                            x       y       z     vdW  Elec       q    Type
REMARK                         _______ _______ _______ _____ _____    ______ ____
ROOT
ATOM      1  C   UNL     1      22.233  42.794  48.936  0.00  0.00    +0.000 C 
ATOM      2  CA  UNL     1      23.391  42.115  48.939  0.00  0.00    +0.000 C 
ENDROOT
BRANCH   1   8
ATOM      3  C   UNL     1      18.828  42.179  46.472  0.00  0.00    +0.000 A 
ATOM      4  C   UNL     1      20.107  42.018  45.930  0.00  0.00    +0.000 A 
ATOM      5  C   UNL     1      18.676  42.737  47.738  0.00  0.00    +0.000 A 
ATOM      6  C   UNL     1      21.235  42.269  46.717  0.00  0.00    +0.000 A 
ATOM      7  C   UNL     1      19.800  42.989  48.524  0.00  0.00    +0.000 A 
ATOM      8  C   UNL     1      21.083  42.721  48.031  0.00  0.00    +0.000 A 
BRANCH   3   9
ATOM      9  O   UNL     1      17.671  41.851  45.810  0.00  0.00    +0.000 OA
BRANCH   9  12
ATOM     10 BR   UNL     1      17.734  40.831  42.940  0.00  0.00    +0.000 Br
ATOM     11  C   UNL     1      17.210  39.912  44.519  0.00  0.00    +0.000 A 
ATOM     12  C   UNL     1      17.242  40.540  45.773  0.00  0.00    +0.000 A 
ATOM     13  C   UNL     1      16.784  38.589  44.396  0.00  0.00    +0.000 A 
ATOM     14  C   UNL     1      16.781  39.836  46.898  0.00  0.00    +0.000 A 
ATOM     15  C   UNL     1      16.387  37.893  45.528  0.00  0.00    +0.000 A 
ATOM     16  C   UNL     1      16.380  38.502  46.777  0.00  0.00    +0.000 A 
ATOM     17  F   UNL     1      15.994  36.617  45.417  0.00  0.00    +0.000 F 
ENDBRANCH   9  12
ENDBRANCH   3   9
ENDBRANCH   1   8
BRANCH   2  18
ATOM     18  N   UNL     1      23.855  41.199  48.001  0.00  0.00    +0.000 N 
ATOM     19  C   UNL     1      24.943  41.373  47.165  0.00  0.00    +0.000 C 
ATOM     20  O   UNL     1      25.708  42.327  47.190  0.00  0.00    +0.000 OA
ATOM     21  H   UNL     1      23.363  40.349  47.925  0.00  0.00    +0.000 HD
BRANCH  19  22
ATOM     22  C   UNL     1      25.233  40.192  46.258  0.00  0.00    +0.000 C 
BRANCH  22  23
ATOM     23  C   UNL     1      24.942  40.629  44.819  0.00  0.00    +0.000 C 
BRANCH  23  24
ATOM     24  C   UNL     1      23.775  39.902  44.166  0.00  0.00    +0.000 C 
ATOM     25  C   UNL     1      22.755  40.884  43.586  0.00  0.00    +0.000 C 
ATOM     26  C   UNL     1      22.920  39.085  45.131  0.00  0.00    +0.000 C 
ATOM     27  C   UNL     1      21.469  40.075  43.448  0.00  0.00    +0.000 C 
ATOM     28  C   UNL     1      21.636  38.850  44.346  0.00  0.00    +0.000 C 
ENDBRANCH  23  24
ENDBRANCH  22  23
ENDBRANCH  19  22
ENDBRANCH   2  18
BRANCH   2  29
ATOM     29  C   UNL     1      24.256  42.380  50.147  0.00  0.00    +0.000 C 
ATOM     30  O   UNL     1      24.028  41.981  51.277  0.00  0.00    +0.000 OA
ATOM     31  OXT UNL     1      25.340  43.128  49.838  0.00  0.00    +0.000 OA
ENDBRANCH   2  29
TORSDOF 8
ENDMDL
MODEL 8
REMARK VINA RESULT:      -5.3      4.039      7.668
REMARK  Name = 323201
REMARK  8 active torsions:
REMARK  status: ('A' for Active; 'I' for Inactive)
REMARK    1  A    between atoms: C_3  and  O_5
REMARK    2  A    between atoms: O_5  and  C_8
REMARK    3  A    between atoms: C_15  and  C_16
REMARK    4  A    between atoms: CA_17  and  N_18
REMARK    5  A    between atoms: CA_17  and  C_19
REMARK    6  A    between atoms: C_20  and  C_24
REMARK    7  A    between atoms: C_24  and  C_25
REMARK    8  A    between atoms: C_25  and  C_26
REMARK                            x       y       z     vdW  Elec       q    Type
REMARK                         _______ _______ _______ _____ _____    ______ ____
ROOT
ATOM      1  C   UNL     1      18.402  43.447  46.184  0.00  0.00    +0.000 C 
ATOM      2  CA  UNL     1      17.282  43.190  45.489  0.00  0.00    +0.000 C 
ENDROOT
BRANCH   1   8
ATOM      3  C   UNL     1      22.038  41.401  46.981  0.00  0.00    +0.000 A 
ATOM      4  C   UNL     1      22.051  42.532  46.158  0.00  0.00    +0.000 A 
ATOM      5  C   UNL     1      20.825  40.832  47.360  0.00  0.00    +0.000 A 
ATOM      6  C   UNL     1      20.853  43.182  45.846  0.00  0.00    +0.000 A 
ATOM      7  C   UNL     1      19.630  41.479  47.048  0.00  0.00    +0.000 A 
ATOM      8  C   UNL     1      19.640  42.676  46.323  0.00  0.00    +0.000 A 
BRANCH   3   9
ATOM      9  O   UNL     1      23.171  40.768  47.426  0.00  0.00    +0.000 OA
BRANCH   9  12
ATOM     10 BR   UNL     1      26.040  40.597  46.416  0.00  0.00    +0.000 Br
ATOM     11  C   UNL     1      25.382  41.417  47.999  0.00  0.00    +0.000 A 
ATOM     12  C   UNL     1      24.016  41.402  48.315  0.00  0.00    +0.000 A 
ATOM     13  C   UNL     1      26.303  42.035  48.848  0.00  0.00    +0.000 A 
ATOM     14  C   UNL     1      23.592  41.966  49.530  0.00  0.00    +0.000 A 
ATOM     15  C   UNL     1      25.855  42.636  50.015  0.00  0.00    +0.000 A 
ATOM     16  C   UNL     1      24.511  42.608  50.366  0.00  0.00    +0.000 A 
ATOM     17  F   UNL     1      26.733  43.245  50.824  0.00  0.00    +0.000 F 
ENDBRANCH   9  12
ENDBRANCH   3   9
ENDBRANCH   1   8
BRANCH   2  18
ATOM     18  N   UNL     1      16.960  42.046  44.766  0.00  0.00    +0.000 N 
ATOM     19  C   UNL     1      17.414  41.733  43.497  0.00  0.00    +0.000 C 
ATOM     20  O   UNL     1      18.235  42.379  42.861  0.00  0.00    +0.000 OA
ATOM     21  H   UNL     1      16.354  41.402  45.197  0.00  0.00    +0.000 HD
BRANCH  19  22
ATOM     22  C   UNL     1      16.916  40.403  42.963  0.00  0.00    +0.000 C 
BRANCH  22  23
ATOM     23  C   UNL     1      17.962  39.341  43.314  0.00  0.00    +0.000 C 
BRANCH  23  24
ATOM     24  C   UNL     1      17.738  38.657  44.655  0.00  0.00    +0.000 C 
ATOM     25  C   UNL     1      17.711  37.134  44.512  0.00  0.00    +0.000 C 
ATOM     26  C   UNL     1      16.380  38.943  45.291  0.00  0.00    +0.000 C 
ATOM     27  C   UNL     1      16.994  36.636  45.762  0.00  0.00    +0.000 C 
ATOM     28  C   UNL     1      16.244  37.840  46.332  0.00  0.00    +0.000 C 
ENDBRANCH  23  24
ENDBRANCH  22  23
ENDBRANCH  19  22
ENDBRANCH   2  18
BRANCH   2  29
ATOM     29  C   UNL     1      16.288  44.325  45.485  0.00  0.00    +0.000 C 
ATOM     30  O   UNL     1      15.788  44.820  44.488  0.00  0.00    +0.000 OA
ATOM     31  OXT UNL     1      16.000  44.750  46.737  0.00  0.00    +0.000 OA
ENDBRANCH   2  29
TORSDOF 8
ENDMDL
