MODEL 1
REMARK VINA RESULT:      -8.5      0.000      0.000
REMARK  Name = 323641
REMARK  6 active torsions:
REMARK  status: ('A' for Active; 'I' for Inactive)
REMARK    1  A    between atoms: C_3  and  O_5
REMARK    2  A    between atoms: O_5  and  C_8
REMARK    3  A    between atoms: C_14  and  C_15
REMARK    4  A    between atoms: CA_16  and  N_17
REMARK    5  A    between atoms: CA_16  and  C_18
REMARK    6  A    between atoms: C_19  and  C_23
REMARK                            x       y       z     vdW  Elec       q    Type
REMARK                         _______ _______ _______ _____ _____    ______ ____
ROOT
ATOM      1  C   UNL     1      20.172  41.876  43.482  0.00  0.00    +0.000 C 
ATOM      2  CA  UNL     1      18.890  41.484  43.433  0.00  0.00    +0.000 C 
ENDROOT
BRANCH   1   8
ATOM      3  C   UNL     1      22.556  41.010  46.876  0.00  0.00    +0.000 A 
ATOM      4  C   UNL     1      21.856  42.217  46.827  0.00  0.00    +0.000 A 
ATOM      5  C   UNL     1      22.676  40.226  45.725  0.00  0.00    +0.000 A 
ATOM      6  C   UNL     1      21.147  42.561  45.672  0.00  0.00    +0.000 A 
ATOM      7  C   UNL     1      21.952  40.559  44.581  0.00  0.00    +0.000 A 
ATOM      8  C   UNL     1      21.147  41.705  44.566  0.00  0.00    +0.000 A 
BRANCH   3   9
ATOM      9  O   UNL     1      23.080  40.626  48.092  0.00  0.00    +0.000 OA
BRANCH   9  12
ATOM     10 BR   UNL     1      25.819  40.648  46.672  0.00  0.00    +0.000 Br
ATOM     11  C   UNL     1      25.267  41.596  48.219  0.00  0.00    +0.000 A 
ATOM     12  C   UNL     1      23.962  41.495  48.716  0.00  0.00    +0.000 A 
ATOM     13  C   UNL     1      26.206  42.411  48.863  0.00  0.00    +0.000 A 
ATOM     14  C   UNL     1      23.590  42.292  49.809  0.00  0.00    +0.000 A 
ATOM     15  C   UNL     1      25.843  43.140  49.995  0.00  0.00    +0.000 A 
ATOM     16  C   UNL     1      24.532  43.091  50.461  0.00  0.00    +0.000 A 
ENDBRANCH   9  12
ENDBRANCH   3   9
ENDBRANCH   1   8
BRANCH   2  17
ATOM     17  N   UNL     1      18.237  40.670  44.342  0.00  0.00    +0.000 N 
ATOM     18  C   UNL     1      18.448  39.301  44.435  0.00  0.00    +0.000 C 
ATOM     19  O   UNL     1      19.141  38.664  43.650  0.00  0.00    +0.000 OA
ATOM     20  H   UNL     1      17.587  41.084  44.955  0.00  0.00    +0.000 HD
BRANCH  18  21
ATOM     21  C   UNL     1      17.550  38.645  45.478  0.00  0.00    +0.000 C 
ATOM     22  C   UNL     1      17.852  38.977  46.958  0.00  0.00    +0.000 C 
ATOM     23  C   UNL     1      16.060  39.007  45.340  0.00  0.00    +0.000 C 
ATOM     24  C   UNL     1      16.548  38.524  47.624  0.00  0.00    +0.000 C 
ATOM     25  C   UNL     1      17.795  40.490  47.240  0.00  0.00    +0.000 C 
ATOM     26  C   UNL     1      15.681  39.447  46.766  0.00  0.00    +0.000 C 
ATOM     27  C   UNL     1      16.314  40.825  47.034  0.00  0.00    +0.000 C 
ENDBRANCH  18  21
ENDBRANCH   2  17
BRANCH   2  28
ATOM     28  C   UNL     1      18.079  42.050  42.305  0.00  0.00    +0.000 C 
ATOM     29  O   UNL     1      17.154  41.486  41.748  0.00  0.00    +0.000 OA
ATOM     30  OXT UNL     1      18.529  43.276  41.954  0.00  0.00    +0.000 OA
ENDBRANCH   2  28
TORSDOF 6
ENDMDL
MODEL 2
REMARK VINA RESULT:      -8.4      0.925      1.768
REMARK  Name = 323641
REMARK  6 active torsions:
REMARK  status: ('A' for Active; 'I' for Inactive)
REMARK    1  A    between atoms: C_3  and  O_5
REMARK    2  A    between atoms: O_5  and  C_8
REMARK    3  A    between atoms: C_14  and  C_15
REMARK    4  A    between atoms: CA_16  and  N_17
REMARK    5  A    between atoms: CA_16  and  C_18
REMARK    6  A    between atoms: C_19  and  C_23
REMARK                            x       y       z     vdW  Elec       q    Type
REMARK                         _______ _______ _______ _____ _____    ______ ____
ROOT
ATOM      1  C   UNL     1      20.309  42.026  43.491  0.00  0.00    +0.000 C 
ATOM      2  CA  UNL     1      18.979  41.851  43.481  0.00  0.00    +0.000 C 
ENDROOT
BRANCH   1   8
ATOM      3  C   UNL     1      22.581  41.045  46.931  0.00  0.00    +0.000 A 
ATOM      4  C   UNL     1      22.062  42.334  46.804  0.00  0.00    +0.000 A 
ATOM      5  C   UNL     1      22.574  40.179  45.834  0.00  0.00    +0.000 A 
ATOM      6  C   UNL     1      21.397  42.703  45.630  0.00  0.00    +0.000 A 
ATOM      7  C   UNL     1      21.893  40.539  44.671  0.00  0.00    +0.000 A 
ATOM      8  C   UNL     1      21.261  41.786  44.582  0.00  0.00    +0.000 A 
BRANCH   3   9
ATOM      9  O   UNL     1      23.057  40.669  48.168  0.00  0.00    +0.000 OA
BRANCH   9  12
ATOM     10 BR   UNL     1      25.799  40.627  46.753  0.00  0.00    +0.000 Br
ATOM     11  C   UNL     1      25.266  41.586  48.301  0.00  0.00    +0.000 A 
ATOM     12  C   UNL     1      23.959  41.515  48.796  0.00  0.00    +0.000 A 
ATOM     13  C   UNL     1      26.224  42.377  48.948  0.00  0.00    +0.000 A 
ATOM     14  C   UNL     1      23.603  42.319  49.890  0.00  0.00    +0.000 A 
ATOM     15  C   UNL     1      25.876  43.112  50.082  0.00  0.00    +0.000 A 
ATOM     16  C   UNL     1      24.563  43.094  50.545  0.00  0.00    +0.000 A 
ENDBRANCH   9  12
ENDBRANCH   3   9
ENDBRANCH   1   8
BRANCH   2  17
ATOM     17  N   UNL     1      18.216  41.237  44.458  0.00  0.00    +0.000 N 
ATOM     18  C   UNL     1      17.649  41.917  45.527  0.00  0.00    +0.000 C 
ATOM     19  O   UNL     1      17.863  43.099  45.774  0.00  0.00    +0.000 OA
ATOM     20  H   UNL     1      18.068  40.266  44.392  0.00  0.00    +0.000 HD
BRANCH  18  21
ATOM     21  C   UNL     1      16.916  40.985  46.484  0.00  0.00    +0.000 C 
ATOM     22  C   UNL     1      15.941  39.967  45.847  0.00  0.00    +0.000 C 
ATOM     23  C   UNL     1      17.845  40.092  47.327  0.00  0.00    +0.000 C 
ATOM     24  C   UNL     1      15.759  38.982  47.006  0.00  0.00    +0.000 C 
ATOM     25  C   UNL     1      16.638  39.057  44.818  0.00  0.00    +0.000 C 
ATOM     26  C   UNL     1      17.255  38.685  47.112  0.00  0.00    +0.000 C 
ATOM     27  C   UNL     1      17.596  38.229  45.681  0.00  0.00    +0.000 C 
ENDBRANCH  18  21
ENDBRANCH   2  17
BRANCH   2  28
ATOM     28  C   UNL     1      18.254  42.448  42.310  0.00  0.00    +0.000 C 
ATOM     29  O   UNL     1      18.504  43.525  41.801  0.00  0.00    +0.000 OA
ATOM     30  OXT UNL     1      17.248  41.641  41.903  0.00  0.00    +0.000 OA
ENDBRANCH   2  28
TORSDOF 6
ENDMDL
MODEL 3
REMARK VINA RESULT:      -7.5      1.765      2.677
REMARK  Name = 323641
REMARK  6 active torsions:
REMARK  status: ('A' for Active; 'I' for Inactive)
REMARK    1  A    between atoms: C_3  and  O_5
REMARK    2  A    between atoms: O_5  and  C_8
REMARK    3  A    between atoms: C_14  and  C_15
REMARK    4  A    between atoms: CA_16  and  N_17
REMARK    5  A    between atoms: CA_16  and  C_18
REMARK    6  A    between atoms: C_19  and  C_23
REMARK                            x       y       z     vdW  Elec       q    Type
REMARK                         _______ _______ _______ _____ _____    ______ ____
ROOT
ATOM      1  C   UNL     1      19.870  40.135  43.361  0.00  0.00    +0.000 C 
ATOM      2  CA  UNL     1      18.703  40.642  43.788  0.00  0.00    +0.000 C 
ENDROOT
BRANCH   1   8
ATOM      3  C   UNL     1      23.457  40.380  45.601  0.00  0.00    +0.000 A 
ATOM      4  C   UNL     1      22.758  41.551  45.307  0.00  0.00    +0.000 A 
ATOM      5  C   UNL     1      23.124  39.187  44.954  0.00  0.00    +0.000 A 
ATOM      6  C   UNL     1      21.628  41.498  44.484  0.00  0.00    +0.000 A 
ATOM      7  C   UNL     1      21.985  39.130  44.150  0.00  0.00    +0.000 A 
ATOM      8  C   UNL     1      21.206  40.276  43.949  0.00  0.00    +0.000 A 
BRANCH   3   9
ATOM      9  O   UNL     1      24.443  40.451  46.562  0.00  0.00    +0.000 OA
BRANCH   9  12
ATOM     10 BR   UNL     1      27.086  41.460  47.794  0.00  0.00    +0.000 Br
ATOM     11  C   UNL     1      25.305  41.764  48.371  0.00  0.00    +0.000 A 
ATOM     12  C   UNL     1      24.207  41.252  47.669  0.00  0.00    +0.000 A 
ATOM     13  C   UNL     1      25.109  42.521  49.533  0.00  0.00    +0.000 A 
ATOM     14  C   UNL     1      22.913  41.589  48.095  0.00  0.00    +0.000 A 
ATOM     15  C   UNL     1      23.817  42.784  49.989  0.00  0.00    +0.000 A 
ATOM     16  C   UNL     1      22.719  42.329  49.263  0.00  0.00    +0.000 A 
ENDBRANCH   9  12
ENDBRANCH   3   9
ENDBRANCH   1   8
BRANCH   2  17
ATOM     17  N   UNL     1      18.470  41.284  44.991  0.00  0.00    +0.000 N 
ATOM     18  C   UNL     1      18.285  40.617  46.194  0.00  0.00    +0.000 C 
ATOM     19  O   UNL     1      18.193  39.398  46.289  0.00  0.00    +0.000 OA
ATOM     20  H   UNL     1      18.433  42.269  44.993  0.00  0.00    +0.000 HD
BRANCH  18  21
ATOM     21  C   UNL     1      17.983  41.569  47.345  0.00  0.00    +0.000 C 
ATOM     22  C   UNL     1      19.189  42.325  47.951  0.00  0.00    +0.000 C 
ATOM     23  C   UNL     1      17.010  42.706  46.982  0.00  0.00    +0.000 C 
ATOM     24  C   UNL     1      18.470  43.439  48.719  0.00  0.00    +0.000 C 
ATOM     25  C   UNL     1      19.945  43.157  46.899  0.00  0.00    +0.000 C 
ATOM     26  C   UNL     1      17.754  43.962  47.474  0.00  0.00    +0.000 C 
ATOM     27  C   UNL     1      18.928  44.238  46.517  0.00  0.00    +0.000 C 
ENDBRANCH  18  21
ENDBRANCH   2  17
BRANCH   2  28
ATOM     28  C   UNL     1      17.561  40.552  42.819  0.00  0.00    +0.000 C 
ATOM     29  O   UNL     1      17.383  41.291  41.868  0.00  0.00    +0.000 OA
ATOM     30  OXT UNL     1      16.718  39.549  43.157  0.00  0.00    +0.000 OA
ENDBRANCH   2  28
TORSDOF 6
ENDMDL
MODEL 4
REMARK VINA RESULT:      -7.3      3.004      7.366
REMARK  Name = 323641
REMARK  6 active torsions:
REMARK  status: ('A' for Active; 'I' for Inactive)
REMARK    1  A    between atoms: C_3  and  O_5
REMARK    2  A    between atoms: O_5  and  C_8
REMARK    3  A    between atoms: C_14  and  C_15
REMARK    4  A    between atoms: CA_16  and  N_17
REMARK    5  A    between atoms: CA_16  and  C_18
REMARK    6  A    between atoms: C_19  and  C_23
REMARK                            x       y       z     vdW  Elec       q    Type
REMARK                         _______ _______ _______ _____ _____    ______ ____
ROOT
ATOM      1  C   UNL     1      21.848  42.579  48.675  0.00  0.00    +0.000 C 
ATOM      2  CA  UNL     1      22.913  41.960  48.144  0.00  0.00    +0.000 C 
ENDROOT
BRANCH   1   8
ATOM      3  C   UNL     1      18.051  42.915  46.827  0.00  0.00    +0.000 A 
ATOM      4  C   UNL     1      19.200  43.034  46.045  0.00  0.00    +0.000 A 
ATOM      5  C   UNL     1      18.149  42.944  48.221  0.00  0.00    +0.000 A 
ATOM      6  C   UNL     1      20.459  43.027  46.655  0.00  0.00    +0.000 A 
ATOM      7  C   UNL     1      19.404  42.916  48.828  0.00  0.00    +0.000 A 
ATOM      8  C   UNL     1      20.566  42.910  48.044  0.00  0.00    +0.000 A 
BRANCH   3   9
ATOM      9  O   UNL     1      16.851  42.737  46.173  0.00  0.00    +0.000 OA
BRANCH   9  12
ATOM     10 BR   UNL     1      16.480  39.774  46.955  0.00  0.00    +0.000 Br
ATOM     11  C   UNL     1      16.722  40.536  45.235  0.00  0.00    +0.000 A 
ATOM     12  C   UNL     1      16.843  41.918  45.053  0.00  0.00    +0.000 A 
ATOM     13  C   UNL     1      16.778  39.672  44.134  0.00  0.00    +0.000 A 
ATOM     14  C   UNL     1      16.928  42.425  43.747  0.00  0.00    +0.000 A 
ATOM     15  C   UNL     1      16.939  40.185  42.847  0.00  0.00    +0.000 A 
ATOM     16  C   UNL     1      17.001  41.562  42.652  0.00  0.00    +0.000 A 
ENDBRANCH   9  12
ENDBRANCH   3   9
ENDBRANCH   1   8
BRANCH   2  17
ATOM     17  N   UNL     1      22.979  41.336  46.911  0.00  0.00    +0.000 N 
ATOM     18  C   UNL     1      22.948  39.958  46.746  0.00  0.00    +0.000 C 
ATOM     19  O   UNL     1      22.977  39.160  47.676  0.00  0.00    +0.000 OA
ATOM     20  H   UNL     1      23.053  41.900  46.107  0.00  0.00    +0.000 HD
BRANCH  18  21
ATOM     21  C   UNL     1      23.102  39.545  45.287  0.00  0.00    +0.000 C 
ATOM     22  C   UNL     1      21.855  38.929  44.608  0.00  0.00    +0.000 C 
ATOM     23  C   UNL     1      23.473  40.702  44.342  0.00  0.00    +0.000 C 
ATOM     24  C   UNL     1      22.243  39.057  43.131  0.00  0.00    +0.000 C 
ATOM     25  C   UNL     1      20.639  39.872  44.657  0.00  0.00    +0.000 C 
ATOM     26  C   UNL     1      22.431  40.572  43.215  0.00  0.00    +0.000 C 
ATOM     27  C   UNL     1      21.067  41.037  43.758  0.00  0.00    +0.000 C 
ENDBRANCH  18  21
ENDBRANCH   2  17
BRANCH   2  28
ATOM     28  C   UNL     1      24.173  42.017  48.958  0.00  0.00    +0.000 C 
ATOM     29  O   UNL     1      25.277  41.678  48.574  0.00  0.00    +0.000 OA
ATOM     30  OXT UNL     1      23.920  42.472  50.207  0.00  0.00    +0.000 OA
ENDBRANCH   2  28
TORSDOF 6
ENDMDL
MODEL 5
REMARK VINA RESULT:      -7.0      2.716      7.568
REMARK  Name = 323641
REMARK  6 active torsions:
REMARK  status: ('A' for Active; 'I' for Inactive)
REMARK    1  A    between atoms: C_3  and  O_5
REMARK    2  A    between atoms: O_5  and  C_8
REMARK    3  A    between atoms: C_14  and  C_15
REMARK    4  A    between atoms: CA_16  and  N_17
REMARK    5  A    between atoms: CA_16  and  C_18
REMARK    6  A    between atoms: C_19  and  C_23
REMARK                            x       y       z     vdW  Elec       q    Type
REMARK                         _______ _______ _______ _____ _____    ______ ____
ROOT
ATOM      1  C   UNL     1      21.976  42.682  48.947  0.00  0.00    +0.000 C 
ATOM      2  CA  UNL     1      23.202  42.180  48.729  0.00  0.00    +0.000 C 
ENDROOT
BRANCH   1   8
ATOM      3  C   UNL     1      18.624  42.273  46.389  0.00  0.00    +0.000 A 
ATOM      4  C   UNL     1      19.900  42.337  45.830  0.00  0.00    +0.000 A 
ATOM      5  C   UNL     1      18.434  42.598  47.735  0.00  0.00    +0.000 A 
ATOM      6  C   UNL     1      21.007  42.573  46.653  0.00  0.00    +0.000 A 
ATOM      7  C   UNL     1      19.539  42.813  48.559  0.00  0.00    +0.000 A 
ATOM      8  C   UNL     1      20.834  42.755  48.029  0.00  0.00    +0.000 A 
BRANCH   3   9
ATOM      9  O   UNL     1      17.593  41.853  45.576  0.00  0.00    +0.000 OA
BRANCH   9  12
ATOM     10 BR   UNL     1      18.666  40.005  43.350  0.00  0.00    +0.000 Br
ATOM     11  C   UNL     1      17.499  39.593  44.787  0.00  0.00    +0.000 A 
ATOM     12  C   UNL     1      17.135  40.554  45.737  0.00  0.00    +0.000 A 
ATOM     13  C   UNL     1      17.002  38.287  44.878  0.00  0.00    +0.000 A 
ATOM     14  C   UNL     1      16.342  40.162  46.828  0.00  0.00    +0.000 A 
ATOM     15  C   UNL     1      16.152  37.931  45.925  0.00  0.00    +0.000 A 
ATOM     16  C   UNL     1      15.833  38.865  46.907  0.00  0.00    +0.000 A 
ENDBRANCH   9  12
ENDBRANCH   3   9
ENDBRANCH   1   8
BRANCH   2  17
ATOM     17  N   UNL     1      23.617  41.457  47.624  0.00  0.00    +0.000 N 
ATOM     18  C   UNL     1      23.750  40.076  47.619  0.00  0.00    +0.000 C 
ATOM     19  O   UNL     1      23.627  39.375  48.618  0.00  0.00    +0.000 OA
ATOM     20  H   UNL     1      23.829  41.950  46.799  0.00  0.00    +0.000 HD
BRANCH  18  21
ATOM     21  C   UNL     1      24.285  39.550  46.292  0.00  0.00    +0.000 C 
ATOM     22  C   UNL     1      23.287  38.768  45.406  0.00  0.00    +0.000 C 
ATOM     23  C   UNL     1      24.801  40.648  45.343  0.00  0.00    +0.000 C 
ATOM     24  C   UNL     1      24.017  38.798  44.059  0.00  0.00    +0.000 C 
ATOM     25  C   UNL     1      22.037  39.598  45.061  0.00  0.00    +0.000 C 
ATOM     26  C   UNL     1      24.079  40.325  44.021  0.00  0.00    +0.000 C 
ATOM     27  C   UNL     1      22.596  40.712  44.170  0.00  0.00    +0.000 C 
ENDBRANCH  18  21
ENDBRANCH   2  17
BRANCH   2  28
ATOM     28  C   UNL     1      24.232  42.504  49.770  0.00  0.00    +0.000 C 
ATOM     29  O   UNL     1      24.017  42.618  50.963  0.00  0.00    +0.000 OA
ATOM     30  OXT UNL     1      25.447  42.690  49.206  0.00  0.00    +0.000 OA
ENDBRANCH   2  28
TORSDOF 6
ENDMDL
MODEL 6
REMARK VINA RESULT:      -6.4      1.803      2.300
REMARK  Name = 323641
REMARK  6 active torsions:
REMARK  status: ('A' for Active; 'I' for Inactive)
REMARK    1  A    between atoms: C_3  and  O_5
REMARK    2  A    between atoms: O_5  and  C_8
REMARK    3  A    between atoms: C_14  and  C_15
REMARK    4  A    between atoms: CA_16  and  N_17
REMARK    5  A    between atoms: CA_16  and  C_18
REMARK    6  A    between atoms: C_19  and  C_23
REMARK                            x       y       z     vdW  Elec       q    Type
REMARK                         _______ _______ _______ _____ _____    ______ ____
ROOT
ATOM      1  C   UNL     1      18.935  43.170  45.650  0.00  0.00    +0.000 C 
ATOM      2  CA  UNL     1      17.666  42.795  45.430  0.00  0.00    +0.000 C 
ENDROOT
BRANCH   1   8
ATOM      3  C   UNL     1      22.205  41.020  47.274  0.00  0.00    +0.000 A 
ATOM      4  C   UNL     1      22.452  42.181  46.541  0.00  0.00    +0.000 A 
ATOM      5  C   UNL     1      20.934  40.439  47.253  0.00  0.00    +0.000 A 
ATOM      6  C   UNL     1      21.393  42.846  45.914  0.00  0.00    +0.000 A 
ATOM      7  C   UNL     1      19.874  41.112  46.645  0.00  0.00    +0.000 A 
ATOM      8  C   UNL     1      20.091  42.343  46.012  0.00  0.00    +0.000 A 
BRANCH   3   9
ATOM      9  O   UNL     1      23.240  40.509  48.026  0.00  0.00    +0.000 OA
BRANCH   9  12
ATOM     10 BR   UNL     1      25.957  40.661  46.571  0.00  0.00    +0.000 Br
ATOM     11  C   UNL     1      25.384  41.573  48.133  0.00  0.00    +0.000 A 
ATOM     12  C   UNL     1      24.092  41.411  48.646  0.00  0.00    +0.000 A 
ATOM     13  C   UNL     1      26.296  42.423  48.771  0.00  0.00    +0.000 A 
ATOM     14  C   UNL     1      23.700  42.183  49.751  0.00  0.00    +0.000 A 
ATOM     15  C   UNL     1      25.916  43.127  49.914  0.00  0.00    +0.000 A 
ATOM     16  C   UNL     1      24.615  43.017  50.397  0.00  0.00    +0.000 A 
ENDBRANCH   9  12
ENDBRANCH   3   9
ENDBRANCH   1   8
BRANCH   2  17
ATOM     17  N   UNL     1      17.191  41.499  45.331  0.00  0.00    +0.000 N 
ATOM     18  C   UNL     1      17.030  40.830  44.126  0.00  0.00    +0.000 C 
ATOM     19  O   UNL     1      17.182  41.358  43.029  0.00  0.00    +0.000 OA
ATOM     20  H   UNL     1      16.952  41.026  46.162  0.00  0.00    +0.000 HD
BRANCH  18  21
ATOM     21  C   UNL     1      16.430  39.441  44.308  0.00  0.00    +0.000 C 
ATOM     22  C   UNL     1      17.412  38.249  44.239  0.00  0.00    +0.000 C 
ATOM     23  C   UNL     1      15.728  39.233  45.662  0.00  0.00    +0.000 C 
ATOM     24  C   UNL     1      16.564  37.143  44.875  0.00  0.00    +0.000 C 
ATOM     25  C   UNL     1      18.541  38.363  45.280  0.00  0.00    +0.000 C 
ATOM     26  C   UNL     1      16.354  37.922  46.174  0.00  0.00    +0.000 C 
ATOM     27  C   UNL     1      17.801  38.213  46.613  0.00  0.00    +0.000 C 
ENDBRANCH  18  21
ENDBRANCH   2  17
BRANCH   2  28
ATOM     28  C   UNL     1      16.662  43.907  45.352  0.00  0.00    +0.000 C 
ATOM     29  O   UNL     1      16.243  44.408  44.324  0.00  0.00    +0.000 OA
ATOM     30  OXT UNL     1      16.297  44.317  46.588  0.00  0.00    +0.000 OA
ENDBRANCH   2  28
TORSDOF 6
ENDMDL
