MODEL 1
REMARK VINA RESULT:      -8.7      0.000      0.000
REMARK  Name = 323399
REMARK  8 active torsions:
REMARK  status: ('A' for Active; 'I' for Inactive)
REMARK    1  A    between atoms: C_3  and  O_5
REMARK    2  A    between atoms: O_5  and  C_8
REMARK    3  A    between atoms: C_14  and  C_15
REMARK    4  A    between atoms: CA_16  and  N_17
REMARK    5  A    between atoms: CA_16  and  C_18
REMARK    6  A    between atoms: C_19  and  C_23
REMARK    7  A    between atoms: C_23  and  C_24
REMARK    8  A    between atoms: C_24  and  C_25
REMARK                            x       y       z     vdW  Elec       q    Type
REMARK                         _______ _______ _______ _____ _____    ______ ____
ROOT
ATOM      1  C   UNL     1      20.365  41.895  43.911  0.00  0.00    +0.000 C 
ATOM      2  CA  UNL     1      19.093  42.292  43.731  0.00  0.00    +0.000 C 
ENDROOT
BRANCH   1   8
ATOM      3  C   UNL     1      22.512  40.462  47.272  0.00  0.00    +0.000 A 
ATOM      4  C   UNL     1      22.577  39.743  46.078  0.00  0.00    +0.000 A 
ATOM      5  C   UNL     1      21.580  41.490  47.422  0.00  0.00    +0.000 A 
ATOM      6  C   UNL     1      21.809  40.152  44.980  0.00  0.00    +0.000 A 
ATOM      7  C   UNL     1      20.876  41.941  46.315  0.00  0.00    +0.000 A 
ATOM      8  C   UNL     1      20.996  41.286  45.082  0.00  0.00    +0.000 A 
BRANCH   3   9
ATOM      9  O   UNL     1      23.435  40.174  48.257  0.00  0.00    +0.000 OA
BRANCH   9  12
ATOM     10 BR   UNL     1      25.886  40.644  46.427  0.00  0.00    +0.000 Br
ATOM     11  C   UNL     1      25.391  41.545  48.020  0.00  0.00    +0.000 A 
ATOM     12  C   UNL     1      24.216  41.229  48.708  0.00  0.00    +0.000 A 
ATOM     13  C   UNL     1      26.243  42.543  48.507  0.00  0.00    +0.000 A 
ATOM     14  C   UNL     1      23.864  41.992  49.837  0.00  0.00    +0.000 A 
ATOM     15  C   UNL     1      25.922  43.236  49.677  0.00  0.00    +0.000 A 
ATOM     16  C   UNL     1      24.728  42.967  50.337  0.00  0.00    +0.000 A 
ENDBRANCH   9  12
ENDBRANCH   3   9
ENDBRANCH   1   8
BRANCH   2  17
ATOM     17  N   UNL     1      18.038  42.139  44.614  0.00  0.00    +0.000 N 
ATOM     18  C   UNL     1      17.804  42.914  45.731  0.00  0.00    +0.000 C 
ATOM     19  O   UNL     1      18.422  43.940  45.999  0.00  0.00    +0.000 OA
ATOM     20  H   UNL     1      17.400  41.412  44.429  0.00  0.00    +0.000 HD
BRANCH  18  21
ATOM     21  C   UNL     1      16.646  42.426  46.585  0.00  0.00    +0.000 C 
BRANCH  21  22
ATOM     22  C   UNL     1      16.299  40.989  46.188  0.00  0.00    +0.000 C 
BRANCH  22  23
ATOM     23  C   UNL     1      16.881  39.887  47.091  0.00  0.00    +0.000 C 
ATOM     24  C   UNL     1      18.288  39.494  46.601  0.00  0.00    +0.000 C 
ATOM     25  C   UNL     1      16.010  38.628  47.189  0.00  0.00    +0.000 C 
ATOM     26  C   UNL     1      18.255  38.756  45.263  0.00  0.00    +0.000 C 
ATOM     27  C   UNL     1      15.962  37.821  45.892  0.00  0.00    +0.000 C 
ATOM     28  C   UNL     1      17.344  37.533  45.309  0.00  0.00    +0.000 C 
ENDBRANCH  22  23
ENDBRANCH  21  22
ENDBRANCH  18  21
ENDBRANCH   2  17
BRANCH   2  29
ATOM     29  C   UNL     1      18.713  42.870  42.403  0.00  0.00    +0.000 C 
ATOM     30  O   UNL     1      19.294  43.843  41.937  0.00  0.00    +0.000 OA
ATOM     31  OXT UNL     1      17.773  42.182  41.727  0.00  0.00    +0.000 OA
ENDBRANCH   2  29
TORSDOF 8
ENDMDL
MODEL 2
REMARK VINA RESULT:      -8.2      0.819      1.510
REMARK  Name = 323399
REMARK  8 active torsions:
REMARK  status: ('A' for Active; 'I' for Inactive)
REMARK    1  A    between atoms: C_3  and  O_5
REMARK    2  A    between atoms: O_5  and  C_8
REMARK    3  A    between atoms: C_14  and  C_15
REMARK    4  A    between atoms: CA_16  and  N_17
REMARK    5  A    between atoms: CA_16  and  C_18
REMARK    6  A    between atoms: C_19  and  C_23
REMARK    7  A    between atoms: C_23  and  C_24
REMARK    8  A    between atoms: C_24  and  C_25
REMARK                            x       y       z     vdW  Elec       q    Type
REMARK                         _______ _______ _______ _____ _____    ______ ____
ROOT
ATOM      1  C   UNL     1      20.209  42.235  43.653  0.00  0.00    +0.000 C 
ATOM      2  CA  UNL     1      18.866  42.189  43.628  0.00  0.00    +0.000 C 
ENDROOT
BRANCH   1   8
ATOM      3  C   UNL     1      22.533  41.104  47.012  0.00  0.00    +0.000 A 
ATOM      4  C   UNL     1      22.189  42.447  46.856  0.00  0.00    +0.000 A 
ATOM      5  C   UNL     1      22.320  40.200  45.970  0.00  0.00    +0.000 A 
ATOM      6  C   UNL     1      21.493  42.855  45.711  0.00  0.00    +0.000 A 
ATOM      7  C   UNL     1      21.567  40.588  44.871  0.00  0.00    +0.000 A 
ATOM      8  C   UNL     1      21.134  41.914  44.740  0.00  0.00    +0.000 A 
BRANCH   3   9
ATOM      9  O   UNL     1      23.017  40.693  48.238  0.00  0.00    +0.000 OA
BRANCH   9  12
ATOM     10 BR   UNL     1      25.749  40.624  46.786  0.00  0.00    +0.000 Br
ATOM     11  C   UNL     1      25.247  41.572  48.349  0.00  0.00    +0.000 A 
ATOM     12  C   UNL     1      23.944  41.523  48.852  0.00  0.00    +0.000 A 
ATOM     13  C   UNL     1      26.225  42.329  49.006  0.00  0.00    +0.000 A 
ATOM     14  C   UNL     1      23.616  42.316  49.967  0.00  0.00    +0.000 A 
ATOM     15  C   UNL     1      25.904  43.047  50.161  0.00  0.00    +0.000 A 
ATOM     16  C   UNL     1      24.597  43.047  50.636  0.00  0.00    +0.000 A 
ENDBRANCH   9  12
ENDBRANCH   3   9
ENDBRANCH   1   8
BRANCH   2  17
ATOM     17  N   UNL     1      18.027  41.737  44.632  0.00  0.00    +0.000 N 
ATOM     18  C   UNL     1      17.725  42.415  45.795  0.00  0.00    +0.000 C 
ATOM     19  O   UNL     1      18.046  43.578  46.018  0.00  0.00    +0.000 OA
ATOM     20  H   UNL     1      17.611  40.853  44.505  0.00  0.00    +0.000 HD
BRANCH  18  21
ATOM     21  C   UNL     1      16.883  41.611  46.773  0.00  0.00    +0.000 C 
BRANCH  21  22
ATOM     22  C   UNL     1      17.146  40.120  46.554  0.00  0.00    +0.000 C 
BRANCH  22  23
ATOM     23  C   UNL     1      16.244  39.427  45.518  0.00  0.00    +0.000 C 
ATOM     24  C   UNL     1      15.758  38.072  46.066  0.00  0.00    +0.000 C 
ATOM     25  C   UNL     1      16.905  39.212  44.151  0.00  0.00    +0.000 C 
ATOM     26  C   UNL     1      16.887  37.046  46.169  0.00  0.00    +0.000 C 
ATOM     27  C   UNL     1      18.022  38.169  44.175  0.00  0.00    +0.000 C 
ATOM     28  C   UNL     1      17.608  36.857  44.838  0.00  0.00    +0.000 C 
ENDBRANCH  22  23
ENDBRANCH  21  22
ENDBRANCH  18  21
ENDBRANCH   2  17
BRANCH   2  29
ATOM     29  C   UNL     1      18.168  42.558  42.355  0.00  0.00    +0.000 C 
ATOM     30  O   UNL     1      18.465  43.569  41.731  0.00  0.00    +0.000 OA
ATOM     31  OXT UNL     1      17.281  41.649  41.905  0.00  0.00    +0.000 OA
ENDBRANCH   2  29
TORSDOF 8
ENDMDL
MODEL 3
REMARK VINA RESULT:      -7.6      1.213      2.505
REMARK  Name = 323399
REMARK  8 active torsions:
REMARK  status: ('A' for Active; 'I' for Inactive)
REMARK    1  A    between atoms: C_3  and  O_5
REMARK    2  A    between atoms: O_5  and  C_8
REMARK    3  A    between atoms: C_14  and  C_15
REMARK    4  A    between atoms: CA_16  and  N_17
REMARK    5  A    between atoms: CA_16  and  C_18
REMARK    6  A    between atoms: C_19  and  C_23
REMARK    7  A    between atoms: C_23  and  C_24
REMARK    8  A    between atoms: C_24  and  C_25
REMARK                            x       y       z     vdW  Elec       q    Type
REMARK                         _______ _______ _______ _____ _____    ______ ____
ROOT
ATOM      1  C   UNL     1      19.974  42.237  43.609  0.00  0.00    +0.000 C 
ATOM      2  CA  UNL     1      18.798  41.641  43.351  0.00  0.00    +0.000 C 
ENDROOT
BRANCH   1   8
ATOM      3  C   UNL     1      22.463  41.180  46.873  0.00  0.00    +0.000 A 
ATOM      4  C   UNL     1      21.835  42.426  46.884  0.00  0.00    +0.000 A 
ATOM      5  C   UNL     1      22.460  40.404  45.714  0.00  0.00    +0.000 A 
ATOM      6  C   UNL     1      21.076  42.829  45.778  0.00  0.00    +0.000 A 
ATOM      7  C   UNL     1      21.650  40.768  44.648  0.00  0.00    +0.000 A 
ATOM      8  C   UNL     1      20.939  41.975  44.679  0.00  0.00    +0.000 A 
BRANCH   3   9
ATOM      9  O   UNL     1      23.015  40.718  48.052  0.00  0.00    +0.000 OA
BRANCH   9  12
ATOM     10 BR   UNL     1      25.760  40.651  46.626  0.00  0.00    +0.000 Br
ATOM     11  C   UNL     1      25.244  41.597  48.186  0.00  0.00    +0.000 A 
ATOM     12  C   UNL     1      23.936  41.547  48.676  0.00  0.00    +0.000 A 
ATOM     13  C   UNL     1      26.215  42.353  48.853  0.00  0.00    +0.000 A 
ATOM     14  C   UNL     1      23.597  42.338  49.789  0.00  0.00    +0.000 A 
ATOM     15  C   UNL     1      25.883  43.069  50.005  0.00  0.00    +0.000 A 
ATOM     16  C   UNL     1      24.572  43.069  50.468  0.00  0.00    +0.000 A 
ENDBRANCH   9  12
ENDBRANCH   3   9
ENDBRANCH   1   8
BRANCH   2  17
ATOM     17  N   UNL     1      18.249  40.555  44.012  0.00  0.00    +0.000 N 
ATOM     18  C   UNL     1      18.614  39.236  43.834  0.00  0.00    +0.000 C 
ATOM     19  O   UNL     1      19.582  38.873  43.174  0.00  0.00    +0.000 OA
ATOM     20  H   UNL     1      17.535  40.740  44.664  0.00  0.00    +0.000 HD
BRANCH  18  21
ATOM     21  C   UNL     1      17.744  38.251  44.597  0.00  0.00    +0.000 C 
BRANCH  21  22
ATOM     22  C   UNL     1      16.522  38.986  45.154  0.00  0.00    +0.000 C 
BRANCH  22  23
ATOM     23  C   UNL     1      16.494  39.172  46.681  0.00  0.00    +0.000 C 
ATOM     24  C   UNL     1      15.824  40.514  47.034  0.00  0.00    +0.000 C 
ATOM     25  C   UNL     1      17.873  39.105  47.350  0.00  0.00    +0.000 C 
ATOM     26  C   UNL     1      16.677  41.717  46.631  0.00  0.00    +0.000 C 
ATOM     27  C   UNL     1      18.767  40.298  47.017  0.00  0.00    +0.000 C 
ATOM     28  C   UNL     1      18.079  41.645  47.229  0.00  0.00    +0.000 C 
ENDBRANCH  22  23
ENDBRANCH  21  22
ENDBRANCH  18  21
ENDBRANCH   2  17
BRANCH   2  29
ATOM     29  C   UNL     1      18.016  42.103  42.160  0.00  0.00    +0.000 C 
ATOM     30  O   UNL     1      17.066  41.461  41.728  0.00  0.00    +0.000 OA
ATOM     31  OXT UNL     1      18.366  43.312  41.679  0.00  0.00    +0.000 OA
ENDBRANCH   2  29
TORSDOF 8
ENDMDL
MODEL 4
REMARK VINA RESULT:      -7.4      1.336      2.425
REMARK  Name = 323399
REMARK  8 active torsions:
REMARK  status: ('A' for Active; 'I' for Inactive)
REMARK    1  A    between atoms: C_3  and  O_5
REMARK    2  A    between atoms: O_5  and  C_8
REMARK    3  A    between atoms: C_14  and  C_15
REMARK    4  A    between atoms: CA_16  and  N_17
REMARK    5  A    between atoms: CA_16  and  C_18
REMARK    6  A    between atoms: C_19  and  C_23
REMARK    7  A    between atoms: C_23  and  C_24
REMARK    8  A    between atoms: C_24  and  C_25
REMARK                            x       y       z     vdW  Elec       q    Type
REMARK                         _______ _______ _______ _____ _____    ______ ____
ROOT
ATOM      1  C   UNL     1      18.662  43.376  46.243  0.00  0.00    +0.000 C 
ATOM      2  CA  UNL     1      17.558  43.195  45.498  0.00  0.00    +0.000 C 
ENDROOT
BRANCH   1   8
ATOM      3  C   UNL     1      22.091  41.041  47.111  0.00  0.00    +0.000 A 
ATOM      4  C   UNL     1      22.237  42.179  46.316  0.00  0.00    +0.000 A 
ATOM      5  C   UNL     1      20.818  40.556  47.414  0.00  0.00    +0.000 A 
ATOM      6  C   UNL     1      21.105  42.917  45.949  0.00  0.00    +0.000 A 
ATOM      7  C   UNL     1      19.703  41.326  47.113  0.00  0.00    +0.000 A 
ATOM      8  C   UNL     1      19.839  42.520  46.393  0.00  0.00    +0.000 A 
BRANCH   3   9
ATOM      9  O   UNL     1      23.228  40.464  47.639  0.00  0.00    +0.000 OA
BRANCH   9  12
ATOM     10 BR   UNL     1      25.970  40.615  46.213  0.00  0.00    +0.000 Br
ATOM     11  C   UNL     1      25.407  41.454  47.817  0.00  0.00    +0.000 A 
ATOM     12  C   UNL     1      24.105  41.309  48.304  0.00  0.00    +0.000 A 
ATOM     13  C   UNL     1      26.338  42.227  48.522  0.00  0.00    +0.000 A 
ATOM     14  C   UNL     1      23.727  42.025  49.455  0.00  0.00    +0.000 A 
ATOM     15  C   UNL     1      25.971  42.865  49.708  0.00  0.00    +0.000 A 
ATOM     16  C   UNL     1      24.662  42.772  50.170  0.00  0.00    +0.000 A 
ENDBRANCH   9  12
ENDBRANCH   3   9
ENDBRANCH   1   8
BRANCH   2  17
ATOM     17  N   UNL     1      17.311  42.162  44.610  0.00  0.00    +0.000 N 
ATOM     18  C   UNL     1      17.894  42.010  43.369  0.00  0.00    +0.000 C 
ATOM     19  O   UNL     1      18.824  42.695  42.957  0.00  0.00    +0.000 OA
ATOM     20  H   UNL     1      16.661  41.476  44.889  0.00  0.00    +0.000 HD
BRANCH  18  21
ATOM     21  C   UNL     1      17.327  40.853  42.563  0.00  0.00    +0.000 C 
BRANCH  21  22
ATOM     22  C   UNL     1      16.757  39.804  43.520  0.00  0.00    +0.000 C 
BRANCH  22  23
ATOM     23  C   UNL     1      17.617  39.492  44.757  0.00  0.00    +0.000 C 
ATOM     24  C   UNL     1      18.545  38.297  44.464  0.00  0.00    +0.000 C 
ATOM     25  C   UNL     1      16.809  39.204  46.030  0.00  0.00    +0.000 C 
ATOM     26  C   UNL     1      17.778  36.982  44.330  0.00  0.00    +0.000 C 
ATOM     27  C   UNL     1      16.044  37.882  45.976  0.00  0.00    +0.000 C 
ATOM     28  C   UNL     1      16.913  36.699  45.554  0.00  0.00    +0.000 C 
ENDBRANCH  22  23
ENDBRANCH  21  22
ENDBRANCH  18  21
ENDBRANCH   2  17
BRANCH   2  29
ATOM     29  C   UNL     1      16.506  44.260  45.519  0.00  0.00    +0.000 C 
ATOM     30  O   UNL     1      15.990  44.674  44.488  0.00  0.00    +0.000 OA
ATOM     31  OXT UNL     1      16.102  44.641  46.747  0.00  0.00    +0.000 OA
ENDBRANCH   2  29
TORSDOF 8
ENDMDL
MODEL 5
REMARK VINA RESULT:      -6.9      3.081      7.485
REMARK  Name = 323399
REMARK  8 active torsions:
REMARK  status: ('A' for Active; 'I' for Inactive)
REMARK    1  A    between atoms: C_3  and  O_5
REMARK    2  A    between atoms: O_5  and  C_8
REMARK    3  A    between atoms: C_14  and  C_15
REMARK    4  A    between atoms: CA_16  and  N_17
REMARK    5  A    between atoms: CA_16  and  C_18
REMARK    6  A    between atoms: C_19  and  C_23
REMARK    7  A    between atoms: C_23  and  C_24
REMARK    8  A    between atoms: C_24  and  C_25
REMARK                            x       y       z     vdW  Elec       q    Type
REMARK                         _______ _______ _______ _____ _____    ______ ____
ROOT
ATOM      1  C   UNL     1      22.332  42.493  48.914  0.00  0.00    +0.000 C 
ATOM      2  CA  UNL     1      23.527  41.879  48.916  0.00  0.00    +0.000 C 
ENDROOT
BRANCH   1   8
ATOM      3  C   UNL     1      18.647  41.610  47.016  0.00  0.00    +0.000 A 
ATOM      4  C   UNL     1      19.658  40.648  46.999  0.00  0.00    +0.000 A 
ATOM      5  C   UNL     1      18.924  42.911  47.438  0.00  0.00    +0.000 A 
ATOM      6  C   UNL     1      20.911  40.951  47.547  0.00  0.00    +0.000 A 
ATOM      7  C   UNL     1      20.139  43.188  48.048  0.00  0.00    +0.000 A 
ATOM      8  C   UNL     1      21.136  42.206  48.121  0.00  0.00    +0.000 A 
BRANCH   3   9
ATOM      9  O   UNL     1      17.368  41.218  46.675  0.00  0.00    +0.000 OA
BRANCH   9  12
ATOM     10 BR   UNL     1      16.857  38.279  45.850  0.00  0.00    +0.000 Br
ATOM     11  C   UNL     1      16.883  39.839  44.771  0.00  0.00    +0.000 A 
ATOM     12  C   UNL     1      17.091  41.107  45.319  0.00  0.00    +0.000 A 
ATOM     13  C   UNL     1      16.693  39.692  43.392  0.00  0.00    +0.000 A 
ATOM     14  C   UNL     1      17.015  42.232  44.477  0.00  0.00    +0.000 A 
ATOM     15  C   UNL     1      16.702  40.811  42.556  0.00  0.00    +0.000 A 
ATOM     16  C   UNL     1      16.854  42.082  43.100  0.00  0.00    +0.000 A 
ENDBRANCH   9  12
ENDBRANCH   3   9
ENDBRANCH   1   8
BRANCH   2  17
ATOM     17  N   UNL     1      23.886  40.748  48.203  0.00  0.00    +0.000 N 
ATOM     18  C   UNL     1      24.637  40.732  47.045  0.00  0.00    +0.000 C 
ATOM     19  O   UNL     1      25.211  41.713  46.583  0.00  0.00    +0.000 OA
ATOM     20  H   UNL     1      23.578  39.880  48.551  0.00  0.00    +0.000 HD
BRANCH  18  21
ATOM     21  C   UNL     1      24.757  39.356  46.411  0.00  0.00    +0.000 C 
BRANCH  21  22
ATOM     22  C   UNL     1      23.412  38.971  45.788  0.00  0.00    +0.000 C 
BRANCH  22  23
ATOM     23  C   UNL     1      23.284  39.210  44.274  0.00  0.00    +0.000 C 
ATOM     24  C   UNL     1      23.381  40.717  43.970  0.00  0.00    +0.000 C 
ATOM     25  C   UNL     1      21.997  38.651  43.654  0.00  0.00    +0.000 C 
ATOM     26  C   UNL     1      22.162  41.493  44.469  0.00  0.00    +0.000 C 
ATOM     27  C   UNL     1      20.740  39.406  44.085  0.00  0.00    +0.000 C 
ATOM     28  C   UNL     1      20.858  40.919  43.921  0.00  0.00    +0.000 C 
ENDBRANCH  22  23
ENDBRANCH  21  22
ENDBRANCH  18  21
ENDBRANCH   2  17
BRANCH   2  29
ATOM     29  C   UNL     1      24.578  42.376  49.861  0.00  0.00    +0.000 C 
ATOM     30  O   UNL     1      25.677  42.741  49.463  0.00  0.00    +0.000 OA
ATOM     31  OXT UNL     1      24.185  42.490  51.145  0.00  0.00    +0.000 OA
ENDBRANCH   2  29
TORSDOF 8
ENDMDL
MODEL 6
REMARK VINA RESULT:      -6.5      1.881      3.122
REMARK  Name = 323399
REMARK  8 active torsions:
REMARK  status: ('A' for Active; 'I' for Inactive)
REMARK    1  A    between atoms: C_3  and  O_5
REMARK    2  A    between atoms: O_5  and  C_8
REMARK    3  A    between atoms: C_14  and  C_15
REMARK    4  A    between atoms: CA_16  and  N_17
REMARK    5  A    between atoms: CA_16  and  C_18
REMARK    6  A    between atoms: C_19  and  C_23
REMARK    7  A    between atoms: C_23  and  C_24
REMARK    8  A    between atoms: C_24  and  C_25
REMARK                            x       y       z     vdW  Elec       q    Type
REMARK                         _______ _______ _______ _____ _____    ______ ____
ROOT
ATOM      1  C   UNL     1      21.002  39.181  44.057  0.00  0.00    +0.000 C 
ATOM      2  CA  UNL     1      19.869  39.903  44.080  0.00  0.00    +0.000 C 
ENDROOT
BRANCH   1   8
ATOM      3  C   UNL     1      24.598  40.173  46.068  0.00  0.00    +0.000 A 
ATOM      4  C   UNL     1      24.094  41.062  45.118  0.00  0.00    +0.000 A 
ATOM      5  C   UNL     1      24.063  38.890  46.182  0.00  0.00    +0.000 A 
ATOM      6  C   UNL     1      22.953  40.715  44.382  0.00  0.00    +0.000 A 
ATOM      7  C   UNL     1      22.892  38.575  45.508  0.00  0.00    +0.000 A 
ATOM      8  C   UNL     1      22.319  39.490  44.616  0.00  0.00    +0.000 A 
BRANCH   3   9
ATOM      9  O   UNL     1      25.580  40.626  46.927  0.00  0.00    +0.000 OA
BRANCH   9  12
ATOM     10 BR   UNL     1      27.946  41.430  48.752  0.00  0.00    +0.000 Br
ATOM     11  C   UNL     1      26.107  41.863  48.915  0.00  0.00    +0.000 A 
ATOM     12  C   UNL     1      25.168  41.446  47.968  0.00  0.00    +0.000 A 
ATOM     13  C   UNL     1      25.700  42.613  50.025  0.00  0.00    +0.000 A 
ATOM     14  C   UNL     1      23.833  41.871  48.102  0.00  0.00    +0.000 A 
ATOM     15  C   UNL     1      24.357  42.958  50.188  0.00  0.00    +0.000 A 
ATOM     16  C   UNL     1      23.424  42.595  49.222  0.00  0.00    +0.000 A 
ENDBRANCH   9  12
ENDBRANCH   3   9
ENDBRANCH   1   8
BRANCH   2  17
ATOM     17  N   UNL     1      19.661  41.109  44.726  0.00  0.00    +0.000 N 
ATOM     18  C   UNL     1      19.851  42.360  44.176  0.00  0.00    +0.000 C 
ATOM     19  O   UNL     1      20.087  42.563  42.989  0.00  0.00    +0.000 OA
ATOM     20  H   UNL     1      19.351  41.071  45.660  0.00  0.00    +0.000 HD
BRANCH  18  21
ATOM     21  C   UNL     1      19.673  43.500  45.167  0.00  0.00    +0.000 C 
BRANCH  21  22
ATOM     22  C   UNL     1      19.859  42.963  46.588  0.00  0.00    +0.000 C 
BRANCH  22  23
ATOM     23  C   UNL     1      18.628  43.061  47.506  0.00  0.00    +0.000 C 
ATOM     24  C   UNL     1      18.384  41.710  48.204  0.00  0.00    +0.000 C 
ATOM     25  C   UNL     1      17.343  43.500  46.792  0.00  0.00    +0.000 C 
ATOM     26  C   UNL     1      17.911  40.628  47.234  0.00  0.00    +0.000 C 
ATOM     27  C   UNL     1      16.795  42.447  45.829  0.00  0.00    +0.000 C 
ATOM     28  C   UNL     1      16.670  41.061  46.459  0.00  0.00    +0.000 C 
ENDBRANCH  22  23
ENDBRANCH  21  22
ENDBRANCH  18  21
ENDBRANCH   2  17
BRANCH   2  29
ATOM     29  C   UNL     1      18.646  39.323  43.438  0.00  0.00    +0.000 C 
ATOM     30  O   UNL     1      18.346  38.144  43.580  0.00  0.00    +0.000 OA
ATOM     31  OXT UNL     1      17.861  40.210  42.797  0.00  0.00    +0.000 OA
ENDBRANCH   2  29
TORSDOF 8
ENDMDL
MODEL 7
REMARK VINA RESULT:      -6.0      2.155      3.537
REMARK  Name = 323399
REMARK  8 active torsions:
REMARK  status: ('A' for Active; 'I' for Inactive)
REMARK    1  A    between atoms: C_3  and  O_5
REMARK    2  A    between atoms: O_5  and  C_8
REMARK    3  A    between atoms: C_14  and  C_15
REMARK    4  A    between atoms: CA_16  and  N_17
REMARK    5  A    between atoms: CA_16  and  C_18
REMARK    6  A    between atoms: C_19  and  C_23
REMARK    7  A    between atoms: C_23  and  C_24
REMARK    8  A    between atoms: C_24  and  C_25
REMARK                            x       y       z     vdW  Elec       q    Type
REMARK                         _______ _______ _______ _____ _____    ______ ____
ROOT
ATOM      1  C   UNL     1      20.527  39.034  44.081  0.00  0.00    +0.000 C 
ATOM      2  CA  UNL     1      19.282  39.358  44.471  0.00  0.00    +0.000 C 
ENDROOT
BRANCH   1   8
ATOM      3  C   UNL     1      24.118  40.299  45.943  0.00  0.00    +0.000 A 
ATOM      4  C   UNL     1      23.220  41.267  45.491  0.00  0.00    +0.000 A 
ATOM      5  C   UNL     1      23.950  38.962  45.580  0.00  0.00    +0.000 A 
ATOM      6  C   UNL     1      22.067  40.872  44.799  0.00  0.00    +0.000 A 
ATOM      7  C   UNL     1      22.774  38.564  44.960  0.00  0.00    +0.000 A 
ATOM      8  C   UNL     1      21.817  39.514  44.579  0.00  0.00    +0.000 A 
BRANCH   3   9
ATOM      9  O   UNL     1      25.121  40.693  46.806  0.00  0.00    +0.000 OA
BRANCH   9  12
ATOM     10 BR   UNL     1      27.563  41.590  48.481  0.00  0.00    +0.000 Br
ATOM     11  C   UNL     1      25.721  41.926  48.776  0.00  0.00    +0.000 A 
ATOM     12  C   UNL     1      24.741  41.476  47.887  0.00  0.00    +0.000 A 
ATOM     13  C   UNL     1      25.354  42.638  49.924  0.00  0.00    +0.000 A 
ATOM     14  C   UNL     1      23.399  41.830  48.119  0.00  0.00    +0.000 A 
ATOM     15  C   UNL     1      24.009  42.911  50.184  0.00  0.00    +0.000 A 
ATOM     16  C   UNL     1      23.032  42.515  49.277  0.00  0.00    +0.000 A 
ENDBRANCH   9  12
ENDBRANCH   3   9
ENDBRANCH   1   8
BRANCH   2  17
ATOM     17  N   UNL     1      18.926  40.186  45.521  0.00  0.00    +0.000 N 
ATOM     18  C   UNL     1      18.022  39.879  46.517  0.00  0.00    +0.000 C 
ATOM     19  O   UNL     1      17.530  38.768  46.682  0.00  0.00    +0.000 OA
ATOM     20  H   UNL     1      19.354  41.073  45.560  0.00  0.00    +0.000 HD
BRANCH  18  21
ATOM     21  C   UNL     1      17.730  41.036  47.459  0.00  0.00    +0.000 C 
BRANCH  21  22
ATOM     22  C   UNL     1      16.583  41.873  46.888  0.00  0.00    +0.000 C 
BRANCH  22  23
ATOM     23  C   UNL     1      16.915  43.345  46.588  0.00  0.00    +0.000 C 
ATOM     24  C   UNL     1      16.735  43.629  45.085  0.00  0.00    +0.000 C 
ATOM     25  C   UNL     1      18.324  43.773  47.018  0.00  0.00    +0.000 C 
ATOM     26  C   UNL     1      17.794  42.935  44.228  0.00  0.00    +0.000 C 
ATOM     27  C   UNL     1      19.433  43.142  46.177  0.00  0.00    +0.000 C 
ATOM     28  C   UNL     1      19.209  43.291  44.674  0.00  0.00    +0.000 C 
ENDBRANCH  22  23
ENDBRANCH  21  22
ENDBRANCH  18  21
ENDBRANCH   2  17
BRANCH   2  29
ATOM     29  C   UNL     1      18.129  38.687  43.790  0.00  0.00    +0.000 C 
ATOM     30  O   UNL     1      17.293  39.328  43.164  0.00  0.00    +0.000 OA
ATOM     31  OXT UNL     1      18.146  37.341  43.830  0.00  0.00    +0.000 OA
ENDBRANCH   2  29
TORSDOF 8
ENDMDL
MODEL 8
REMARK VINA RESULT:      -6.0      1.918      3.158
REMARK  Name = 323399
REMARK  8 active torsions:
REMARK  status: ('A' for Active; 'I' for Inactive)
REMARK    1  A    between atoms: C_3  and  O_5
REMARK    2  A    between atoms: O_5  and  C_8
REMARK    3  A    between atoms: C_14  and  C_15
REMARK    4  A    between atoms: CA_16  and  N_17
REMARK    5  A    between atoms: CA_16  and  C_18
REMARK    6  A    between atoms: C_19  and  C_23
REMARK    7  A    between atoms: C_23  and  C_24
REMARK    8  A    between atoms: C_24  and  C_25
REMARK                            x       y       z     vdW  Elec       q    Type
REMARK                         _______ _______ _______ _____ _____    ______ ____
ROOT
ATOM      1  C   UNL     1      19.802  40.628  43.137  0.00  0.00    +0.000 C 
ATOM      2  CA  UNL     1      18.537  40.823  43.545  0.00  0.00    +0.000 C 
ENDROOT
BRANCH   1   8
ATOM      3  C   UNL     1      23.531  40.321  45.129  0.00  0.00    +0.000 A 
ATOM      4  C   UNL     1      23.082  39.236  44.373  0.00  0.00    +0.000 A 
ATOM      5  C   UNL     1      22.670  41.381  45.413  0.00  0.00    +0.000 A 
ATOM      6  C   UNL     1      21.816  39.285  43.776  0.00  0.00    +0.000 A 
ATOM      7  C   UNL     1      21.447  41.463  44.762  0.00  0.00    +0.000 A 
ATOM      8  C   UNL     1      21.018  40.424  43.926  0.00  0.00    +0.000 A 
BRANCH   3   9
ATOM      9  O   UNL     1      24.855  40.340  45.518  0.00  0.00    +0.000 OA
BRANCH   9  12
ATOM     10 BR   UNL     1      23.475  39.058  47.973  0.00  0.00    +0.000 Br
ATOM     11  C   UNL     1      24.568  40.605  47.886  0.00  0.00    +0.000 A 
ATOM     12  C   UNL     1      25.151  41.026  46.688  0.00  0.00    +0.000 A 
ATOM     13  C   UNL     1      24.776  41.335  49.063  0.00  0.00    +0.000 A 
ATOM     14  C   UNL     1      26.019  42.134  46.707  0.00  0.00    +0.000 A 
ATOM     15  C   UNL     1      25.575  42.481  49.049  0.00  0.00    +0.000 A 
ATOM     16  C   UNL     1      26.203  42.875  47.874  0.00  0.00    +0.000 A 
ENDBRANCH   9  12
ENDBRANCH   3   9
ENDBRANCH   1   8
BRANCH   2  17
ATOM     17  N   UNL     1      18.066  40.795  44.847  0.00  0.00    +0.000 N 
ATOM     18  C   UNL     1      17.902  39.664  45.619  0.00  0.00    +0.000 C 
ATOM     19  O   UNL     1      18.299  38.548  45.299  0.00  0.00    +0.000 OA
ATOM     20  H   UNL     1      17.826  41.659  45.256  0.00  0.00    +0.000 HD
BRANCH  18  21
ATOM     21  C   UNL     1      17.239  39.928  46.961  0.00  0.00    +0.000 C 
BRANCH  21  22
ATOM     22  C   UNL     1      16.425  41.221  46.874  0.00  0.00    +0.000 C 
BRANCH  22  23
ATOM     23  C   UNL     1      16.904  42.374  47.773  0.00  0.00    +0.000 C 
ATOM     24  C   UNL     1      16.747  43.717  47.035  0.00  0.00    +0.000 C 
ATOM     25  C   UNL     1      18.351  42.232  48.263  0.00  0.00    +0.000 C 
ATOM     26  C   UNL     1      17.726  43.860  45.870  0.00  0.00    +0.000 C 
ATOM     27  C   UNL     1      19.386  42.400  47.151  0.00  0.00    +0.000 C 
ATOM     28  C   UNL     1      19.172  43.660  46.314  0.00  0.00    +0.000 C 
ENDBRANCH  22  23
ENDBRANCH  21  22
ENDBRANCH  18  21
ENDBRANCH   2  17
BRANCH   2  29
ATOM     29  C   UNL     1      17.473  40.984  42.503  0.00  0.00    +0.000 C 
ATOM     30  O   UNL     1      17.621  41.736  41.547  0.00  0.00    +0.000 OA
ATOM     31  OXT UNL     1      16.408  40.171  42.642  0.00  0.00    +0.000 OA
ENDBRANCH   2  29
TORSDOF 8
ENDMDL
MODEL 9
REMARK VINA RESULT:      -5.9      2.804      7.252
REMARK  Name = 323399
REMARK  8 active torsions:
REMARK  status: ('A' for Active; 'I' for Inactive)
REMARK    1  A    between atoms: C_3  and  O_5
REMARK    2  A    between atoms: O_5  and  C_8
REMARK    3  A    between atoms: C_14  and  C_15
REMARK    4  A    between atoms: CA_16  and  N_17
REMARK    5  A    between atoms: CA_16  and  C_18
REMARK    6  A    between atoms: C_19  and  C_23
REMARK    7  A    between atoms: C_23  and  C_24
REMARK    8  A    between atoms: C_24  and  C_25
REMARK                            x       y       z     vdW  Elec       q    Type
REMARK                         _______ _______ _______ _____ _____    ______ ____
ROOT
ATOM      1  C   UNL     1      22.027  42.754  48.720  0.00  0.00    +0.000 C 
ATOM      2  CA  UNL     1      23.152  42.088  48.405  0.00  0.00    +0.000 C 
ENDROOT
BRANCH   1   8
ATOM      3  C   UNL     1      18.263  42.521  46.788  0.00  0.00    +0.000 A 
ATOM      4  C   UNL     1      19.420  42.513  46.007  0.00  0.00    +0.000 A 
ATOM      5  C   UNL     1      18.335  42.835  48.145  0.00  0.00    +0.000 A 
ATOM      6  C   UNL     1      20.669  42.673  46.619  0.00  0.00    +0.000 A 
ATOM      7  C   UNL     1      19.575  42.920  48.763  0.00  0.00    +0.000 A 
ATOM      8  C   UNL     1      20.751  42.824  48.007  0.00  0.00    +0.000 A 
BRANCH   3   9
ATOM      9  O   UNL     1      17.074  42.143  46.196  0.00  0.00    +0.000 OA
BRANCH   9  12
ATOM     10 BR   UNL     1      16.941  41.404  43.194  0.00  0.00    +0.000 Br
ATOM     11  C   UNL     1      16.742  40.286  44.712  0.00  0.00    +0.000 A 
ATOM     12  C   UNL     1      16.875  40.783  46.012  0.00  0.00    +0.000 A 
ATOM     13  C   UNL     1      16.447  38.933  44.504  0.00  0.00    +0.000 A 
ATOM     14  C   UNL     1      16.798  39.885  47.093  0.00  0.00    +0.000 A 
ATOM     15  C   UNL     1      16.293  38.070  45.590  0.00  0.00    +0.000 A 
ATOM     16  C   UNL     1      16.477  38.543  46.885  0.00  0.00    +0.000 A 
ENDBRANCH   9  12
ENDBRANCH   3   9
ENDBRANCH   1   8
BRANCH   2  17
ATOM     17  N   UNL     1      23.338  41.224  47.340  0.00  0.00    +0.000 N 
ATOM     18  C   UNL     1      23.611  39.875  47.436  0.00  0.00    +0.000 C 
ATOM     19  O   UNL     1      23.572  39.237  48.484  0.00  0.00    +0.000 OA
ATOM     20  H   UNL     1      23.272  41.606  46.434  0.00  0.00    +0.000 HD
BRANCH  18  21
ATOM     21  C   UNL     1      23.901  39.210  46.100  0.00  0.00    +0.000 C 
BRANCH  21  22
ATOM     22  C   UNL     1      23.426  40.126  44.970  0.00  0.00    +0.000 C 
BRANCH  22  23
ATOM     23  C   UNL     1      22.762  39.422  43.774  0.00  0.00    +0.000 C 
ATOM     24  C   UNL     1      22.297  40.466  42.741  0.00  0.00    +0.000 C 
ATOM     25  C   UNL     1      21.578  38.522  44.150  0.00  0.00    +0.000 C 
ATOM     26  C   UNL     1      21.123  41.305  43.246  0.00  0.00    +0.000 C 
ATOM     27  C   UNL     1      20.354  39.300  44.632  0.00  0.00    +0.000 C 
ATOM     28  C   UNL     1      19.951  40.434  43.690  0.00  0.00    +0.000 C 
ENDBRANCH  22  23
ENDBRANCH  21  22
ENDBRANCH  18  21
ENDBRANCH   2  17
BRANCH   2  29
ATOM     29  C   UNL     1      24.316  42.180  49.342  0.00  0.00    +0.000 C 
ATOM     30  O   UNL     1      25.471  42.150  48.934  0.00  0.00    +0.000 OA
ATOM     31  OXT UNL     1      23.997  42.403  50.632  0.00  0.00    +0.000 OA
ENDBRANCH   2  29
TORSDOF 8
ENDMDL
