MODEL 1
REMARK VINA RESULT:      -8.7      0.000      0.000
REMARK  Name = 323641
REMARK  6 active torsions:
REMARK  status: ('A' for Active; 'I' for Inactive)
REMARK    1  A    between atoms: C_3  and  O_5
REMARK    2  A    between atoms: O_5  and  C_8
REMARK    3  A    between atoms: C_14  and  C_15
REMARK    4  A    between atoms: CA_16  and  N_17
REMARK    5  A    between atoms: CA_16  and  C_18
REMARK    6  A    between atoms: C_19  and  C_23
REMARK                            x       y       z     vdW  Elec       q    Type
REMARK                         _______ _______ _______ _____ _____    ______ ____
ROOT
ATOM      1  C   UNL     1      20.306  42.000  43.509  0.00  0.00    +0.000 C 
ATOM      2  CA  UNL     1      18.974  41.829  43.496  0.00  0.00    +0.000 C 
ENDROOT
BRANCH   1   8
ATOM      3  C   UNL     1      22.584  41.032  46.949  0.00  0.00    +0.000 A 
ATOM      4  C   UNL     1      22.052  42.315  46.823  0.00  0.00    +0.000 A 
ATOM      5  C   UNL     1      22.584  40.165  45.853  0.00  0.00    +0.000 A 
ATOM      6  C   UNL     1      21.384  42.678  45.650  0.00  0.00    +0.000 A 
ATOM      7  C   UNL     1      21.897  40.520  44.690  0.00  0.00    +0.000 A 
ATOM      8  C   UNL     1      21.255  41.761  44.601  0.00  0.00    +0.000 A 
BRANCH   3   9
ATOM      9  O   UNL     1      23.063  40.657  48.187  0.00  0.00    +0.000 OA
BRANCH   9  12
ATOM     10 BR   UNL     1      25.797  40.652  46.747  0.00  0.00    +0.000 Br
ATOM     11  C   UNL     1      25.269  41.590  48.309  0.00  0.00    +0.000 A 
ATOM     12  C   UNL     1      23.965  41.505  48.812  0.00  0.00    +0.000 A 
ATOM     13  C   UNL     1      26.227  42.379  48.957  0.00  0.00    +0.000 A 
ATOM     14  C   UNL     1      23.613  42.299  49.915  0.00  0.00    +0.000 A 
ATOM     15  C   UNL     1      25.882  43.104  50.100  0.00  0.00    +0.000 A 
ATOM     16  C   UNL     1      24.572  43.074  50.571  0.00  0.00    +0.000 A 
ENDBRANCH   9  12
ENDBRANCH   3   9
ENDBRANCH   1   8
BRANCH   2  17
ATOM     17  N   UNL     1      18.211  41.223  44.480  0.00  0.00    +0.000 N 
ATOM     18  C   UNL     1      17.631  41.922  45.531  0.00  0.00    +0.000 C 
ATOM     19  O   UNL     1      17.831  43.111  45.749  0.00  0.00    +0.000 OA
ATOM     20  H   UNL     1      18.072  40.251  44.431  0.00  0.00    +0.000 HD
BRANCH  18  21
ATOM     21  C   UNL     1      16.907  41.006  46.509  0.00  0.00    +0.000 C 
ATOM     22  C   UNL     1      15.929  39.975  45.897  0.00  0.00    +0.000 C 
ATOM     23  C   UNL     1      17.843  40.128  47.362  0.00  0.00    +0.000 C 
ATOM     24  C   UNL     1      15.758  39.011  47.077  0.00  0.00    +0.000 C 
ATOM     25  C   UNL     1      16.616  39.046  44.882  0.00  0.00    +0.000 C 
ATOM     26  C   UNL     1      17.257  38.719  47.173  0.00  0.00    +0.000 C 
ATOM     27  C   UNL     1      17.588  38.239  45.750  0.00  0.00    +0.000 C 
ENDBRANCH  18  21
ENDBRANCH   2  17
BRANCH   2  28
ATOM     28  C   UNL     1      18.257  42.415  42.318  0.00  0.00    +0.000 C 
ATOM     29  O   UNL     1      18.490  43.499  41.809  0.00  0.00    +0.000 OA
ATOM     30  OXT UNL     1      17.265  41.591  41.898  0.00  0.00    +0.000 OA
ENDBRANCH   2  28
TORSDOF 6
ENDMDL
MODEL 2
REMARK VINA RESULT:      -7.9      2.885      6.741
REMARK  Name = 323641
REMARK  6 active torsions:
REMARK  status: ('A' for Active; 'I' for Inactive)
REMARK    1  A    between atoms: C_3  and  O_5
REMARK    2  A    between atoms: O_5  and  C_8
REMARK    3  A    between atoms: C_14  and  C_15
REMARK    4  A    between atoms: CA_16  and  N_17
REMARK    5  A    between atoms: CA_16  and  C_18
REMARK    6  A    between atoms: C_19  and  C_23
REMARK                            x       y       z     vdW  Elec       q    Type
REMARK                         _______ _______ _______ _____ _____    ______ ____
ROOT
ATOM      1  C   UNL     1      23.721  41.128  45.985  0.00  0.00    +0.000 C 
ATOM      2  CA  UNL     1      23.429  41.782  47.121  0.00  0.00    +0.000 C 
ENDROOT
BRANCH   1   8
ATOM      3  C   UNL     1      20.666  39.605  43.474  0.00  0.00    +0.000 A 
ATOM      4  C   UNL     1      21.606  38.727  44.011  0.00  0.00    +0.000 A 
ATOM      5  C   UNL     1      20.873  40.985  43.553  0.00  0.00    +0.000 A 
ATOM      6  C   UNL     1      22.677  39.228  44.759  0.00  0.00    +0.000 A 
ATOM      7  C   UNL     1      21.929  41.484  44.318  0.00  0.00    +0.000 A 
ATOM      8  C   UNL     1      22.809  40.606  44.963  0.00  0.00    +0.000 A 
BRANCH   3   9
ATOM      9  O   UNL     1      19.531  39.059  42.911  0.00  0.00    +0.000 OA
BRANCH   9  12
ATOM     10 BR   UNL     1      17.372  41.255  42.643  0.00  0.00    +0.000 Br
ATOM     11  C   UNL     1      17.400  39.736  43.780  0.00  0.00    +0.000 A 
ATOM     12  C   UNL     1      18.453  38.813  43.747  0.00  0.00    +0.000 A 
ATOM     13  C   UNL     1      16.330  39.557  44.664  0.00  0.00    +0.000 A 
ATOM     14  C   UNL     1      18.365  37.660  44.544  0.00  0.00    +0.000 A 
ATOM     15  C   UNL     1      16.295  38.445  45.508  0.00  0.00    +0.000 A 
ATOM     16  C   UNL     1      17.306  37.490  45.438  0.00  0.00    +0.000 A 
ENDBRANCH   9  12
ENDBRANCH   3   9
ENDBRANCH   1   8
BRANCH   2  17
ATOM     17  N   UNL     1      22.186  42.257  47.503  0.00  0.00    +0.000 N 
ATOM     18  C   UNL     1      21.070  41.443  47.640  0.00  0.00    +0.000 C 
ATOM     19  O   UNL     1      21.051  40.258  47.330  0.00  0.00    +0.000 OA
ATOM     20  H   UNL     1      22.090  43.219  47.687  0.00  0.00    +0.000 HD
BRANCH  18  21
ATOM     21  C   UNL     1      19.816  42.230  48.000  0.00  0.00    +0.000 C 
ATOM     22  C   UNL     1      19.659  43.621  47.340  0.00  0.00    +0.000 C 
ATOM     23  C   UNL     1      18.499  41.521  47.627  0.00  0.00    +0.000 C 
ATOM     24  C   UNL     1      18.166  43.880  47.577  0.00  0.00    +0.000 C 
ATOM     25  C   UNL     1      19.682  43.547  45.804  0.00  0.00    +0.000 C 
ATOM     26  C   UNL     1      17.736  42.606  46.849  0.00  0.00    +0.000 C 
ATOM     27  C   UNL     1      18.399  42.778  45.471  0.00  0.00    +0.000 C 
ENDBRANCH  18  21
ENDBRANCH   2  17
BRANCH   2  28
ATOM     28  C   UNL     1      24.566  41.946  48.084  0.00  0.00    +0.000 C 
ATOM     29  O   UNL     1      25.750  41.847  47.811  0.00  0.00    +0.000 OA
ATOM     30  OXT UNL     1      24.105  42.187  49.337  0.00  0.00    +0.000 OA
ENDBRANCH   2  28
TORSDOF 6
ENDMDL
MODEL 3
REMARK VINA RESULT:      -7.7      1.866      2.880
REMARK  Name = 323641
REMARK  6 active torsions:
REMARK  status: ('A' for Active; 'I' for Inactive)
REMARK    1  A    between atoms: C_3  and  O_5
REMARK    2  A    between atoms: O_5  and  C_8
REMARK    3  A    between atoms: C_14  and  C_15
REMARK    4  A    between atoms: CA_16  and  N_17
REMARK    5  A    between atoms: CA_16  and  C_18
REMARK    6  A    between atoms: C_19  and  C_23
REMARK                            x       y       z     vdW  Elec       q    Type
REMARK                         _______ _______ _______ _____ _____    ______ ____
ROOT
ATOM      1  C   UNL     1      19.843  40.106  43.403  0.00  0.00    +0.000 C 
ATOM      2  CA  UNL     1      18.671  40.611  43.825  0.00  0.00    +0.000 C 
ENDROOT
BRANCH   1   8
ATOM      3  C   UNL     1      23.448  40.403  45.610  0.00  0.00    +0.000 A 
ATOM      4  C   UNL     1      22.707  41.556  45.358  0.00  0.00    +0.000 A 
ATOM      5  C   UNL     1      23.145  39.217  44.936  0.00  0.00    +0.000 A 
ATOM      6  C   UNL     1      21.570  41.489  44.547  0.00  0.00    +0.000 A 
ATOM      7  C   UNL     1      21.997  39.144  44.145  0.00  0.00    +0.000 A 
ATOM      8  C   UNL     1      21.178  40.269  43.984  0.00  0.00    +0.000 A 
BRANCH   3   9
ATOM      9  O   UNL     1      24.444  40.478  46.562  0.00  0.00    +0.000 OA
BRANCH   9  12
ATOM     10 BR   UNL     1      27.092  41.485  47.797  0.00  0.00    +0.000 Br
ATOM     11  C   UNL     1      25.311  41.781  48.379  0.00  0.00    +0.000 A 
ATOM     12  C   UNL     1      24.213  41.274  47.673  0.00  0.00    +0.000 A 
ATOM     13  C   UNL     1      25.116  42.527  49.547  0.00  0.00    +0.000 A 
ATOM     14  C   UNL     1      22.919  41.609  48.103  0.00  0.00    +0.000 A 
ATOM     15  C   UNL     1      23.823  42.788  50.007  0.00  0.00    +0.000 A 
ATOM     16  C   UNL     1      22.725  42.340  49.277  0.00  0.00    +0.000 A 
ENDBRANCH   9  12
ENDBRANCH   3   9
ENDBRANCH   1   8
BRANCH   2  17
ATOM     17  N   UNL     1      18.442  41.276  45.017  0.00  0.00    +0.000 N 
ATOM     18  C   UNL     1      18.295  40.626  46.235  0.00  0.00    +0.000 C 
ATOM     19  O   UNL     1      18.242  39.407  46.353  0.00  0.00    +0.000 OA
ATOM     20  H   UNL     1      18.381  42.258  45.000  0.00  0.00    +0.000 HD
BRANCH  18  21
ATOM     21  C   UNL     1      17.980  41.587  47.375  0.00  0.00    +0.000 C 
ATOM     22  C   UNL     1      19.177  42.363  47.976  0.00  0.00    +0.000 C 
ATOM     23  C   UNL     1      16.996  42.712  46.997  0.00  0.00    +0.000 C 
ATOM     24  C   UNL     1      18.442  43.479  48.728  0.00  0.00    +0.000 C 
ATOM     25  C   UNL     1      19.927  43.193  46.921  0.00  0.00    +0.000 C 
ATOM     26  C   UNL     1      17.726  43.979  47.472  0.00  0.00    +0.000 C 
ATOM     27  C   UNL     1      18.899  44.255  46.516  0.00  0.00    +0.000 C 
ENDBRANCH  18  21
ENDBRANCH   2  17
BRANCH   2  28
ATOM     28  C   UNL     1      17.528  40.484  42.865  0.00  0.00    +0.000 C 
ATOM     29  O   UNL     1      17.313  41.214  41.913  0.00  0.00    +0.000 OA
ATOM     30  OXT UNL     1      16.717  39.454  43.215  0.00  0.00    +0.000 OA
ENDBRANCH   2  28
TORSDOF 6
ENDMDL
MODEL 4
REMARK VINA RESULT:      -7.5      2.802      7.404
REMARK  Name = 323641
REMARK  6 active torsions:
REMARK  status: ('A' for Active; 'I' for Inactive)
REMARK    1  A    between atoms: C_3  and  O_5
REMARK    2  A    between atoms: O_5  and  C_8
REMARK    3  A    between atoms: C_14  and  C_15
REMARK    4  A    between atoms: CA_16  and  N_17
REMARK    5  A    between atoms: CA_16  and  C_18
REMARK    6  A    between atoms: C_19  and  C_23
REMARK                            x       y       z     vdW  Elec       q    Type
REMARK                         _______ _______ _______ _____ _____    ______ ____
ROOT
ATOM      1  C   UNL     1      21.836  42.586  48.672  0.00  0.00    +0.000 C 
ATOM      2  CA  UNL     1      22.908  41.972  48.144  0.00  0.00    +0.000 C 
ENDROOT
BRANCH   1   8
ATOM      3  C   UNL     1      18.042  42.910  46.813  0.00  0.00    +0.000 A 
ATOM      4  C   UNL     1      19.194  43.028  46.036  0.00  0.00    +0.000 A 
ATOM      5  C   UNL     1      18.134  42.938  48.207  0.00  0.00    +0.000 A 
ATOM      6  C   UNL     1      20.450  43.024  46.650  0.00  0.00    +0.000 A 
ATOM      7  C   UNL     1      19.389  42.911  48.819  0.00  0.00    +0.000 A 
ATOM      8  C   UNL     1      20.554  42.907  48.040  0.00  0.00    +0.000 A 
BRANCH   3   9
ATOM      9  O   UNL     1      16.843  42.727  46.155  0.00  0.00    +0.000 OA
BRANCH   9  12
ATOM     10 BR   UNL     1      16.467  39.768  46.962  0.00  0.00    +0.000 Br
ATOM     11  C   UNL     1      16.718  40.515  45.236  0.00  0.00    +0.000 A 
ATOM     12  C   UNL     1      16.839  41.897  45.045  0.00  0.00    +0.000 A 
ATOM     13  C   UNL     1      16.783  39.642  44.144  0.00  0.00    +0.000 A 
ATOM     14  C   UNL     1      16.926  42.392  43.733  0.00  0.00    +0.000 A 
ATOM     15  C   UNL     1      16.948  40.145  42.852  0.00  0.00    +0.000 A 
ATOM     16  C   UNL     1      17.006  41.520  42.646  0.00  0.00    +0.000 A 
ENDBRANCH   9  12
ENDBRANCH   3   9
ENDBRANCH   1   8
BRANCH   2  17
ATOM     17  N   UNL     1      22.976  41.351  46.908  0.00  0.00    +0.000 N 
ATOM     18  C   UNL     1      22.939  39.972  46.747  0.00  0.00    +0.000 C 
ATOM     19  O   UNL     1      22.956  39.178  47.680  0.00  0.00    +0.000 OA
ATOM     20  H   UNL     1      23.052  41.915  46.105  0.00  0.00    +0.000 HD
BRANCH  18  21
ATOM     21  C   UNL     1      23.102  39.552  45.291  0.00  0.00    +0.000 C 
ATOM     22  C   UNL     1      21.862  38.930  44.607  0.00  0.00    +0.000 C 
ATOM     23  C   UNL     1      23.478  40.705  44.341  0.00  0.00    +0.000 C 
ATOM     24  C   UNL     1      22.261  39.052  43.132  0.00  0.00    +0.000 C 
ATOM     25  C   UNL     1      20.643  39.867  44.639  0.00  0.00    +0.000 C 
ATOM     26  C   UNL     1      22.443  40.568  43.212  0.00  0.00    +0.000 C 
ATOM     27  C   UNL     1      21.076  41.033  43.743  0.00  0.00    +0.000 C 
ENDBRANCH  18  21
ENDBRANCH   2  17
BRANCH   2  28
ATOM     28  C   UNL     1      24.160  42.032  48.964  0.00  0.00    +0.000 C 
ATOM     29  O   UNL     1      25.269  41.686  48.598  0.00  0.00    +0.000 OA
ATOM     30  OXT UNL     1      23.896  42.496  50.212  0.00  0.00    +0.000 OA
ENDBRANCH   2  28
TORSDOF 6
ENDMDL
MODEL 5
REMARK VINA RESULT:      -7.2      2.676      7.488
REMARK  Name = 323641
REMARK  6 active torsions:
REMARK  status: ('A' for Active; 'I' for Inactive)
REMARK    1  A    between atoms: C_3  and  O_5
REMARK    2  A    between atoms: O_5  and  C_8
REMARK    3  A    between atoms: C_14  and  C_15
REMARK    4  A    between atoms: CA_16  and  N_17
REMARK    5  A    between atoms: CA_16  and  C_18
REMARK    6  A    between atoms: C_19  and  C_23
REMARK                            x       y       z     vdW  Elec       q    Type
REMARK                         _______ _______ _______ _____ _____    ______ ____
ROOT
ATOM      1  C   UNL     1      21.935  42.654  48.852  0.00  0.00    +0.000 C 
ATOM      2  CA  UNL     1      23.122  42.136  48.495  0.00  0.00    +0.000 C 
ENDROOT
BRANCH   1   8
ATOM      3  C   UNL     1      18.342  42.420  46.618  0.00  0.00    +0.000 A 
ATOM      4  C   UNL     1      19.560  42.489  45.943  0.00  0.00    +0.000 A 
ATOM      5  C   UNL     1      18.288  42.679  47.990  0.00  0.00    +0.000 A 
ATOM      6  C   UNL     1      20.745  42.667  46.664  0.00  0.00    +0.000 A 
ATOM      7  C   UNL     1      19.472  42.834  48.713  0.00  0.00    +0.000 A 
ATOM      8  C   UNL     1      20.710  42.783  48.058  0.00  0.00    +0.000 A 
BRANCH   3   9
ATOM      9  O   UNL     1      17.228  42.055  45.890  0.00  0.00    +0.000 OA
BRANCH   9  12
ATOM     10 BR   UNL     1      17.940  40.810  43.153  0.00  0.00    +0.000 Br
ATOM     11  C   UNL     1      17.122  39.999  44.660  0.00  0.00    +0.000 A 
ATOM     12  C   UNL     1      16.901  40.708  45.847  0.00  0.00    +0.000 A 
ATOM     13  C   UNL     1      16.737  38.657  44.556  0.00  0.00    +0.000 A 
ATOM     14  C   UNL     1      16.380  40.023  46.956  0.00  0.00    +0.000 A 
ATOM     15  C   UNL     1      16.148  38.009  45.644  0.00  0.00    +0.000 A 
ATOM     16  C   UNL     1      15.982  38.689  46.848  0.00  0.00    +0.000 A 
ENDBRANCH   9  12
ENDBRANCH   3   9
ENDBRANCH   1   8
BRANCH   2  17
ATOM     17  N   UNL     1      23.403  41.449  47.326  0.00  0.00    +0.000 N 
ATOM     18  C   UNL     1      23.404  40.063  47.240  0.00  0.00    +0.000 C 
ATOM     19  O   UNL     1      23.269  39.322  48.206  0.00  0.00    +0.000 OA
ATOM     20  H   UNL     1      23.611  41.969  46.517  0.00  0.00    +0.000 HD
BRANCH  18  21
ATOM     21  C   UNL     1      23.817  39.566  45.859  0.00  0.00    +0.000 C 
ATOM     22  C   UNL     1      22.736  38.819  45.042  0.00  0.00    +0.000 C 
ATOM     23  C   UNL     1      24.267  40.682  44.897  0.00  0.00    +0.000 C 
ATOM     24  C   UNL     1      23.351  38.877  43.639  0.00  0.00    +0.000 C 
ATOM     25  C   UNL     1      21.474  39.670  44.822  0.00  0.00    +0.000 C 
ATOM     26  C   UNL     1      23.429  40.405  43.637  0.00  0.00    +0.000 C 
ATOM     27  C   UNL     1      21.972  40.806  43.921  0.00  0.00    +0.000 C 
ENDBRANCH  18  21
ENDBRANCH   2  17
BRANCH   2  28
ATOM     28  C   UNL     1      24.253  42.394  49.443  0.00  0.00    +0.000 C 
ATOM     29  O   UNL     1      24.142  42.694  50.619  0.00  0.00    +0.000 OA
ATOM     30  OXT UNL     1      25.447  42.288  48.809  0.00  0.00    +0.000 OA
ENDBRANCH   2  28
TORSDOF 6
ENDMDL
MODEL 6
REMARK VINA RESULT:      -6.2      2.635      7.872
REMARK  Name = 323641
REMARK  6 active torsions:
REMARK  status: ('A' for Active; 'I' for Inactive)
REMARK    1  A    between atoms: C_3  and  O_5
REMARK    2  A    between atoms: O_5  and  C_8
REMARK    3  A    between atoms: C_14  and  C_15
REMARK    4  A    between atoms: CA_16  and  N_17
REMARK    5  A    between atoms: CA_16  and  C_18
REMARK    6  A    between atoms: C_19  and  C_23
REMARK                            x       y       z     vdW  Elec       q    Type
REMARK                         _______ _______ _______ _____ _____    ______ ____
ROOT
ATOM      1  C   UNL     1      23.294  40.227  44.611  0.00  0.00    +0.000 C 
ATOM      2  CA  UNL     1      24.079  40.236  45.701  0.00  0.00    +0.000 C 
ENDROOT
BRANCH   1   8
ATOM      3  C   UNL     1      19.239  41.436  44.371  0.00  0.00    +0.000 A 
ATOM      4  C   UNL     1      19.836  40.830  43.266  0.00  0.00    +0.000 A 
ATOM      5  C   UNL     1      20.027  41.865  45.443  0.00  0.00    +0.000 A 
ATOM      6  C   UNL     1      21.198  40.518  43.296  0.00  0.00    +0.000 A 
ATOM      7  C   UNL     1      21.383  41.533  45.482  0.00  0.00    +0.000 A 
ATOM      8  C   UNL     1      21.965  40.816  44.428  0.00  0.00    +0.000 A 
BRANCH   3   9
ATOM      9  O   UNL     1      17.864  41.551  44.373  0.00  0.00    +0.000 OA
BRANCH   9  12
ATOM     10 BR   UNL     1      16.772  42.850  46.956  0.00  0.00    +0.000 Br
ATOM     11  C   UNL     1      16.612  41.056  46.357  0.00  0.00    +0.000 A 
ATOM     12  C   UNL     1      17.144  40.641  45.130  0.00  0.00    +0.000 A 
ATOM     13  C   UNL     1      15.941  40.146  47.182  0.00  0.00    +0.000 A 
ATOM     14  C   UNL     1      16.906  39.325  44.703  0.00  0.00    +0.000 A 
ATOM     15  C   UNL     1      15.780  38.819  46.778  0.00  0.00    +0.000 A 
ATOM     16  C   UNL     1      16.251  38.412  45.532  0.00  0.00    +0.000 A 
ENDBRANCH   9  12
ENDBRANCH   3   9
ENDBRANCH   1   8
BRANCH   2  17
ATOM     17  N   UNL     1      23.867  40.958  46.863  0.00  0.00    +0.000 N 
ATOM     18  C   UNL     1      23.708  40.365  48.109  0.00  0.00    +0.000 C 
ATOM     19  O   UNL     1      23.627  39.155  48.280  0.00  0.00    +0.000 OA
ATOM     20  H   UNL     1      23.830  41.939  46.803  0.00  0.00    +0.000 HD
BRANCH  18  21
ATOM     21  C   UNL     1      23.417  41.383  49.205  0.00  0.00    +0.000 C 
ATOM     22  C   UNL     1      24.504  41.558  50.292  0.00  0.00    +0.000 C 
ATOM     23  C   UNL     1      23.210  42.821  48.690  0.00  0.00    +0.000 C 
ATOM     24  C   UNL     1      24.076  42.895  50.909  0.00  0.00    +0.000 C 
ATOM     25  C   UNL     1      25.867  41.955  49.700  0.00  0.00    +0.000 C 
ATOM     26  C   UNL     1      24.162  43.642  49.577  0.00  0.00    +0.000 C 
ATOM     27  C   UNL     1      25.608  43.357  49.137  0.00  0.00    +0.000 C 
ENDBRANCH  18  21
ENDBRANCH   2  17
BRANCH   2  28
ATOM     28  C   UNL     1      25.261  39.317  45.655  0.00  0.00    +0.000 C 
ATOM     29  O   UNL     1      25.219  38.108  45.504  0.00  0.00    +0.000 OA
ATOM     30  OXT UNL     1      26.415  40.006  45.846  0.00  0.00    +0.000 OA
ENDBRANCH   2  28
TORSDOF 6
ENDMDL
MODEL 7
REMARK VINA RESULT:      -6.0      2.856      7.809
REMARK  Name = 323641
REMARK  6 active torsions:
REMARK  status: ('A' for Active; 'I' for Inactive)
REMARK    1  A    between atoms: C_3  and  O_5
REMARK    2  A    between atoms: O_5  and  C_8
REMARK    3  A    between atoms: C_14  and  C_15
REMARK    4  A    between atoms: CA_16  and  N_17
REMARK    5  A    between atoms: CA_16  and  C_18
REMARK    6  A    between atoms: C_19  and  C_23
REMARK                            x       y       z     vdW  Elec       q    Type
REMARK                         _______ _______ _______ _____ _____    ______ ____
ROOT
ATOM      1  C   UNL     1      22.408  42.811  49.300  0.00  0.00    +0.000 C 
ATOM      2  CA  UNL     1      23.586  42.174  49.412  0.00  0.00    +0.000 C 
ENDROOT
BRANCH   1   8
ATOM      3  C   UNL     1      19.342  42.850  46.375  0.00  0.00    +0.000 A 
ATOM      4  C   UNL     1      18.997  42.761  47.722  0.00  0.00    +0.000 A 
ATOM      5  C   UNL     1      20.672  42.675  45.981  0.00  0.00    +0.000 A 
ATOM      6  C   UNL     1      19.999  42.646  48.691  0.00  0.00    +0.000 A 
ATOM      7  C   UNL     1      21.674  42.583  46.949  0.00  0.00    +0.000 A 
ATOM      8  C   UNL     1      21.345  42.615  48.310  0.00  0.00    +0.000 A 
BRANCH   3   9
ATOM      9  O   UNL     1      18.340  43.153  45.476  0.00  0.00    +0.000 OA
BRANCH   9  12
ATOM     10 BR   UNL     1      19.158  43.375  42.504  0.00  0.00    +0.000 Br
ATOM     11  C   UNL     1      18.053  42.084  43.349  0.00  0.00    +0.000 A 
ATOM     12  C   UNL     1      17.812  42.112  44.728  0.00  0.00    +0.000 A 
ATOM     13  C   UNL     1      17.476  41.089  42.550  0.00  0.00    +0.000 A 
ATOM     14  C   UNL     1      17.064  41.073  45.304  0.00  0.00    +0.000 A 
ATOM     15  C   UNL     1      16.670  40.106  43.127  0.00  0.00    +0.000 A 
ATOM     16  C   UNL     1      16.475  40.090  44.506  0.00  0.00    +0.000 A 
ENDBRANCH   9  12
ENDBRANCH   3   9
ENDBRANCH   1   8
BRANCH   2  17
ATOM     17  N   UNL     1      23.989  41.057  48.700  0.00  0.00    +0.000 N 
ATOM     18  C   UNL     1      24.830  41.122  47.597  0.00  0.00    +0.000 C 
ATOM     19  O   UNL     1      25.201  42.171  47.085  0.00  0.00    +0.000 OA
ATOM     20  H   UNL     1      23.665  40.175  48.991  0.00  0.00    +0.000 HD
BRANCH  18  21
ATOM     21  C   UNL     1      25.057  39.757  46.957  0.00  0.00    +0.000 C 
ATOM     22  C   UNL     1      23.878  38.758  47.023  0.00  0.00    +0.000 C 
ATOM     23  C   UNL     1      25.378  39.813  45.451  0.00  0.00    +0.000 C 
ATOM     24  C   UNL     1      24.303  37.746  45.952  0.00  0.00    +0.000 C 
ATOM     25  C   UNL     1      22.598  39.317  46.377  0.00  0.00    +0.000 C 
ATOM     26  C   UNL     1      24.382  38.806  44.852  0.00  0.00    +0.000 C 
ATOM     27  C   UNL     1      22.975  39.426  44.895  0.00  0.00    +0.000 C 
ENDBRANCH  18  21
ENDBRANCH   2  17
BRANCH   2  28
ATOM     28  C   UNL     1      24.566  42.787  50.364  0.00  0.00    +0.000 C 
ATOM     29  O   UNL     1      25.651  43.256  50.065  0.00  0.00    +0.000 OA
ATOM     30  OXT UNL     1      24.107  42.721  51.639  0.00  0.00    +0.000 OA
ENDBRANCH   2  28
TORSDOF 6
ENDMDL
