MODEL 1
REMARK VINA RESULT:      -6.3      0.000      0.000
REMARK  Name = 320413
REMARK  6 active torsions:
REMARK  status: ('A' for Active; 'I' for Inactive)
REMARK    1  A    between atoms: C_3  and  O_5
REMARK    2  A    between atoms: O_5  and  C_8
REMARK    3  A    between atoms: C_14  and  C_15
REMARK    4  A    between atoms: CA_16  and  N_17
REMARK    5  A    between atoms: CA_16  and  C_18
REMARK    6  A    between atoms: C_19  and  C_23
REMARK                            x       y       z     vdW  Elec       q    Type
REMARK                         _______ _______ _______ _____ _____    ______ ____
ROOT
ATOM      1  C   UNL     1      20.136  42.560  43.548  0.00  0.00    +0.000 C 
ATOM      2  CA  UNL     1      19.029  41.928  43.121  0.00  0.00    +0.000 C 
ENDROOT
BRANCH   1   8
ATOM      3  C   UNL     1      22.381  41.231  46.894  0.00  0.00    +0.000 A 
ATOM      4  C   UNL     1      22.091  42.589  46.765  0.00  0.00    +0.000 A 
ATOM      5  C   UNL     1      22.169  40.368  45.814  0.00  0.00    +0.000 A 
ATOM      6  C   UNL     1      21.442  43.054  45.614  0.00  0.00    +0.000 A 
ATOM      7  C   UNL     1      21.502  40.829  44.676  0.00  0.00    +0.000 A 
ATOM      8  C   UNL     1      21.092  42.166  44.591  0.00  0.00    +0.000 A 
BRANCH   3   9
ATOM      9  O   UNL     1      22.845  40.788  48.115  0.00  0.00    +0.000 OA
BRANCH   9  12
ATOM     10 BR   UNL     1      25.598  40.535  46.734  0.00  0.00    +0.000 Br
ATOM     11  C   UNL     1      25.122  41.523  48.283  0.00  0.00    +0.000 A 
ATOM     12  C   UNL     1      23.805  41.556  48.758  0.00  0.00    +0.000 A 
ATOM     13  C   UNL     1      26.131  42.230  48.949  0.00  0.00    +0.000 A 
ATOM     14  C   UNL     1      23.501  42.383  49.851  0.00  0.00    +0.000 A 
ATOM     15  C   UNL     1      25.828  42.988  50.079  0.00  0.00    +0.000 A 
ATOM     16  C   UNL     1      24.512  43.075  50.524  0.00  0.00    +0.000 A 
ENDBRANCH   9  12
ENDBRANCH   3   9
ENDBRANCH   1   8
BRANCH   2  17
ATOM     17  N   UNL     1      18.626  40.646  43.481  0.00  0.00    +0.000 N 
ATOM     18  C   UNL     1      17.730  40.446  44.517  0.00  0.00    +0.000 C 
ATOM     19  O   UNL     1      17.308  41.337  45.238  0.00  0.00    +0.000 OA
ATOM     20  H   UNL     1      18.982  39.871  42.991  0.00  0.00    +0.000 HD
BRANCH  18  21
ATOM     21  C   UNL     1      17.399  39.031  44.856  0.00  0.00    +0.000 A 
ATOM     22  C   UNL     1      18.009  38.025  44.092  0.00  0.00    +0.000 A 
ATOM     23  C   UNL     1      16.565  38.683  45.926  0.00  0.00    +0.000 A 
ATOM     24  C   UNL     1      17.812  36.680  44.405  0.00  0.00    +0.000 A 
ATOM     25  C   UNL     1      16.373  37.333  46.241  0.00  0.00    +0.000 A 
ATOM     26  C   UNL     1      17.004  36.341  45.486  0.00  0.00    +0.000 A 
ATOM     27 BR   UNL     1      16.789  34.521  45.951  0.00  0.00    +0.000 Br
ENDBRANCH  18  21
ENDBRANCH   2  17
BRANCH   2  28
ATOM     28  C   UNL     1      18.167  42.703  42.167  0.00  0.00    +0.000 C 
ATOM     29  O   UNL     1      18.290  43.887  41.902  0.00  0.00    +0.000 OA
ATOM     30  OXT UNL     1      17.205  41.917  41.630  0.00  0.00    +0.000 OA
ENDBRANCH   2  28
TORSDOF 6
ENDMDL
MODEL 2
REMARK VINA RESULT:      -6.0      0.918      1.281
REMARK  Name = 320413
REMARK  6 active torsions:
REMARK  status: ('A' for Active; 'I' for Inactive)
REMARK    1  A    between atoms: C_3  and  O_5
REMARK    2  A    between atoms: O_5  and  C_8
REMARK    3  A    between atoms: C_14  and  C_15
REMARK    4  A    between atoms: CA_16  and  N_17
REMARK    5  A    between atoms: CA_16  and  C_18
REMARK    6  A    between atoms: C_19  and  C_23
REMARK                            x       y       z     vdW  Elec       q    Type
REMARK                         _______ _______ _______ _____ _____    ______ ____
ROOT
ATOM      1  C   UNL     1      19.234  42.770  44.524  0.00  0.00    +0.000 C 
ATOM      2  CA  UNL     1      18.155  42.066  44.140  0.00  0.00    +0.000 C 
ENDROOT
BRANCH   1   8
ATOM      3  C   UNL     1      22.265  41.203  47.046  0.00  0.00    +0.000 A 
ATOM      4  C   UNL     1      21.874  42.533  47.197  0.00  0.00    +0.000 A 
ATOM      5  C   UNL     1      21.858  40.482  45.919  0.00  0.00    +0.000 A 
ATOM      6  C   UNL     1      20.951  43.091  46.304  0.00  0.00    +0.000 A 
ATOM      7  C   UNL     1      20.921  41.033  45.041  0.00  0.00    +0.000 A 
ATOM      8  C   UNL     1      20.426  42.325  45.257  0.00  0.00    +0.000 A 
BRANCH   3   9
ATOM      9  O   UNL     1      23.023  40.639  48.052  0.00  0.00    +0.000 OA
BRANCH   9  12
ATOM     10 BR   UNL     1      25.677  40.582  46.469  0.00  0.00    +0.000 Br
ATOM     11  C   UNL     1      25.267  41.486  48.085  0.00  0.00    +0.000 A 
ATOM     12  C   UNL     1      23.988  41.433  48.654  0.00  0.00    +0.000 A 
ATOM     13  C   UNL     1      26.285  42.221  48.705  0.00  0.00    +0.000 A 
ATOM     14  C   UNL     1      23.724  42.203  49.797  0.00  0.00    +0.000 A 
ATOM     15  C   UNL     1      26.028  42.921  49.883  0.00  0.00    +0.000 A 
ATOM     16  C   UNL     1      24.745  42.923  50.424  0.00  0.00    +0.000 A 
ENDBRANCH   9  12
ENDBRANCH   3   9
ENDBRANCH   1   8
BRANCH   2  17
ATOM     17  N   UNL     1      18.004  40.686  44.223  0.00  0.00    +0.000 N 
ATOM     18  C   UNL     1      17.358  40.102  45.298  0.00  0.00    +0.000 C 
ATOM     19  O   UNL     1      16.964  40.719  46.276  0.00  0.00    +0.000 OA
ATOM     20  H   UNL     1      18.362  40.116  43.505  0.00  0.00    +0.000 HD
BRANCH  18  21
ATOM     21  C   UNL     1      17.291  38.611  45.315  0.00  0.00    +0.000 A 
ATOM     22  C   UNL     1      16.470  38.014  46.283  0.00  0.00    +0.000 A 
ATOM     23  C   UNL     1      17.958  37.812  44.379  0.00  0.00    +0.000 A 
ATOM     24  C   UNL     1      16.293  36.631  46.305  0.00  0.00    +0.000 A 
ATOM     25  C   UNL     1      17.775  36.424  44.401  0.00  0.00    +0.000 A 
ATOM     26  C   UNL     1      16.938  35.843  45.357  0.00  0.00    +0.000 A 
ATOM     27 BR   UNL     1      16.647  33.976  45.345  0.00  0.00    +0.000 Br
ENDBRANCH  18  21
ENDBRANCH   2  17
BRANCH   2  28
ATOM     28  C   UNL     1      17.022  42.874  43.574  0.00  0.00    +0.000 C 
ATOM     29  O   UNL     1      16.697  43.991  43.938  0.00  0.00    +0.000 OA
ATOM     30  OXT UNL     1      16.381  42.193  42.596  0.00  0.00    +0.000 OA
ENDBRANCH   2  28
TORSDOF 6
ENDMDL
MODEL 3
REMARK VINA RESULT:      -5.0      3.390      7.345
REMARK  Name = 320413
REMARK  6 active torsions:
REMARK  status: ('A' for Active; 'I' for Inactive)
REMARK    1  A    between atoms: C_3  and  O_5
REMARK    2  A    between atoms: O_5  and  C_8
REMARK    3  A    between atoms: C_14  and  C_15
REMARK    4  A    between atoms: CA_16  and  N_17
REMARK    5  A    between atoms: CA_16  and  C_18
REMARK    6  A    between atoms: C_19  and  C_23
REMARK                            x       y       z     vdW  Elec       q    Type
REMARK                         _______ _______ _______ _____ _____    ______ ____
ROOT
ATOM      1  C   UNL     1      24.152  40.692  46.027  0.00  0.00    +0.000 C 
ATOM      2  CA  UNL     1      23.897  41.551  47.030  0.00  0.00    +0.000 C 
ENDROOT
BRANCH   1   8
ATOM      3  C   UNL     1      21.066  39.354  43.441  0.00  0.00    +0.000 A 
ATOM      4  C   UNL     1      21.725  38.429  44.250  0.00  0.00    +0.000 A 
ATOM      5  C   UNL     1      21.588  40.643  43.290  0.00  0.00    +0.000 A 
ATOM      6  C   UNL     1      22.813  38.840  45.030  0.00  0.00    +0.000 A 
ATOM      7  C   UNL     1      22.660  41.056  44.085  0.00  0.00    +0.000 A 
ATOM      8  C   UNL     1      23.248  40.169  44.994  0.00  0.00    +0.000 A 
BRANCH   3   9
ATOM      9  O   UNL     1      19.890  38.957  42.839  0.00  0.00    +0.000 OA
BRANCH   9  12
ATOM     10 BR   UNL     1      18.222  41.559  42.831  0.00  0.00    +0.000 Br
ATOM     11  C   UNL     1      17.918  39.945  43.781  0.00  0.00    +0.000 A 
ATOM     12  C   UNL     1      18.764  38.838  43.640  0.00  0.00    +0.000 A 
ATOM     13  C   UNL     1      16.811  39.884  44.637  0.00  0.00    +0.000 A 
ATOM     14  C   UNL     1      18.427  37.643  44.296  0.00  0.00    +0.000 A 
ATOM     15  C   UNL     1      16.532  38.713  45.341  0.00  0.00    +0.000 A 
ATOM     16  C   UNL     1      17.333  37.588  45.162  0.00  0.00    +0.000 A 
ENDBRANCH   9  12
ENDBRANCH   3   9
ENDBRANCH   1   8
BRANCH   2  17
ATOM     17  N   UNL     1      22.722  42.271  47.214  0.00  0.00    +0.000 N 
ATOM     18  C   UNL     1      21.513  41.626  47.408  0.00  0.00    +0.000 C 
ATOM     19  O   UNL     1      21.366  40.415  47.341  0.00  0.00    +0.000 OA
ATOM     20  H   UNL     1      22.751  43.255  47.207  0.00  0.00    +0.000 HD
BRANCH  18  21
ATOM     21  C   UNL     1      20.304  42.489  47.548  0.00  0.00    +0.000 A 
ATOM     22  C   UNL     1      19.723  42.980  46.370  0.00  0.00    +0.000 A 
ATOM     23  C   UNL     1      19.710  42.768  48.786  0.00  0.00    +0.000 A 
ATOM     24  C   UNL     1      18.543  43.723  46.419  0.00  0.00    +0.000 A 
ATOM     25  C   UNL     1      18.525  43.510  48.831  0.00  0.00    +0.000 A 
ATOM     26  C   UNL     1      17.944  43.975  47.649  0.00  0.00    +0.000 A 
ATOM     27 BR   UNL     1      16.311  44.925  47.710  0.00  0.00    +0.000 Br
ENDBRANCH  18  21
ENDBRANCH   2  17
BRANCH   2  28
ATOM     28  C   UNL     1      25.005  41.727  48.029  0.00  0.00    +0.000 C 
ATOM     29  O   UNL     1      26.187  41.518  47.821  0.00  0.00    +0.000 OA
ATOM     30  OXT UNL     1      24.522  42.145  49.222  0.00  0.00    +0.000 OA
ENDBRANCH   2  28
TORSDOF 6
ENDMDL
MODEL 4
REMARK VINA RESULT:      -4.9      1.798      2.193
REMARK  Name = 320413
REMARK  6 active torsions:
REMARK  status: ('A' for Active; 'I' for Inactive)
REMARK    1  A    between atoms: C_3  and  O_5
REMARK    2  A    between atoms: O_5  and  C_8
REMARK    3  A    between atoms: C_14  and  C_15
REMARK    4  A    between atoms: CA_16  and  N_17
REMARK    5  A    between atoms: CA_16  and  C_18
REMARK    6  A    between atoms: C_19  and  C_23
REMARK                            x       y       z     vdW  Elec       q    Type
REMARK                         _______ _______ _______ _____ _____    ______ ____
ROOT
ATOM      1  C   UNL     1      18.774  43.548  45.301  0.00  0.00    +0.000 C 
ATOM      2  CA  UNL     1      17.681  42.859  44.929  0.00  0.00    +0.000 C 
ENDROOT
BRANCH   1   8
ATOM      3  C   UNL     1      21.848  41.786  47.635  0.00  0.00    +0.000 A 
ATOM      4  C   UNL     1      20.614  42.055  48.226  0.00  0.00    +0.000 A 
ATOM      5  C   UNL     1      22.152  42.327  46.381  0.00  0.00    +0.000 A 
ATOM      6  C   UNL     1      19.627  42.729  47.497  0.00  0.00    +0.000 A 
ATOM      7  C   UNL     1      21.159  42.982  45.647  0.00  0.00    +0.000 A 
ATOM      8  C   UNL     1      19.876  43.144  46.184  0.00  0.00    +0.000 A 
BRANCH   3   9
ATOM      9  O   UNL     1      22.718  40.958  48.314  0.00  0.00    +0.000 OA
BRANCH   9  12
ATOM     10 BR   UNL     1      23.883  42.849  50.462  0.00  0.00    +0.000 Br
ATOM     11  C   UNL     1      24.756  42.025  48.992  0.00  0.00    +0.000 A 
ATOM     12  C   UNL     1      24.077  41.158  48.126  0.00  0.00    +0.000 A 
ATOM     13  C   UNL     1      26.113  42.305  48.791  0.00  0.00    +0.000 A 
ATOM     14  C   UNL     1      24.804  40.505  47.118  0.00  0.00    +0.000 A 
ATOM     15  C   UNL     1      26.804  41.708  47.738  0.00  0.00    +0.000 A 
ATOM     16  C   UNL     1      26.154  40.798  46.908  0.00  0.00    +0.000 A 
ENDBRANCH   9  12
ENDBRANCH   3   9
ENDBRANCH   1   8
BRANCH   2  17
ATOM     17  N   UNL     1      17.432  41.515  45.186  0.00  0.00    +0.000 N 
ATOM     18  C   UNL     1      17.875  40.529  44.321  0.00  0.00    +0.000 C 
ATOM     19  O   UNL     1      18.416  40.754  43.249  0.00  0.00    +0.000 OA
ATOM     20  H   UNL     1      16.936  41.260  45.997  0.00  0.00    +0.000 HD
BRANCH  18  21
ATOM     21  C   UNL     1      17.516  39.122  44.662  0.00  0.00    +0.000 A 
ATOM     22  C   UNL     1      18.281  38.102  44.079  0.00  0.00    +0.000 A 
ATOM     23  C   UNL     1      16.502  38.798  45.573  0.00  0.00    +0.000 A 
ATOM     24  C   UNL     1      18.057  36.767  44.417  0.00  0.00    +0.000 A 
ATOM     25  C   UNL     1      16.283  37.458  45.914  0.00  0.00    +0.000 A 
ATOM     26  C   UNL     1      17.066  36.453  45.341  0.00  0.00    +0.000 A 
ATOM     27 BR   UNL     1      16.806  34.651  45.849  0.00  0.00    +0.000 Br
ENDBRANCH  18  21
ENDBRANCH   2  17
BRANCH   2  28
ATOM     28  C   UNL     1      16.649  43.641  44.167  0.00  0.00    +0.000 C 
ATOM     29  O   UNL     1      16.125  44.675  44.542  0.00  0.00    +0.000 OA
ATOM     30  OXT UNL     1      16.355  43.041  42.991  0.00  0.00    +0.000 OA
ENDBRANCH   2  28
TORSDOF 6
ENDMDL
MODEL 5
REMARK VINA RESULT:      -4.6      3.158      8.097
REMARK  Name = 320413
REMARK  6 active torsions:
REMARK  status: ('A' for Active; 'I' for Inactive)
REMARK    1  A    between atoms: C_3  and  O_5
REMARK    2  A    between atoms: O_5  and  C_8
REMARK    3  A    between atoms: C_14  and  C_15
REMARK    4  A    between atoms: CA_16  and  N_17
REMARK    5  A    between atoms: CA_16  and  C_18
REMARK    6  A    between atoms: C_19  and  C_23
REMARK                            x       y       z     vdW  Elec       q    Type
REMARK                         _______ _______ _______ _____ _____    ______ ____
ROOT
ATOM      1  C   UNL     1      23.289  38.937  44.595  0.00  0.00    +0.000 C 
ATOM      2  CA  UNL     1      23.908  38.709  45.766  0.00  0.00    +0.000 C 
ENDROOT
BRANCH   1   8
ATOM      3  C   UNL     1      20.245  41.823  43.958  0.00  0.00    +0.000 A 
ATOM      4  C   UNL     1      20.336  40.729  43.099  0.00  0.00    +0.000 A 
ATOM      5  C   UNL     1      21.291  42.102  44.843  0.00  0.00    +0.000 A 
ATOM      6  C   UNL     1      21.397  39.826  43.235  0.00  0.00    +0.000 A 
ATOM      7  C   UNL     1      22.338  41.189  44.992  0.00  0.00    +0.000 A 
ATOM      8  C   UNL     1      22.371  40.021  44.220  0.00  0.00    +0.000 A 
BRANCH   3   9
ATOM      9  O   UNL     1      19.090  42.577  43.917  0.00  0.00    +0.000 OA
BRANCH   9  12
ATOM     10 BR   UNL     1      16.870  40.429  44.001  0.00  0.00    +0.000 Br
ATOM     11  C   UNL     1      17.262  41.795  45.258  0.00  0.00    +0.000 A 
ATOM     12  C   UNL     1      18.340  42.672  45.079  0.00  0.00    +0.000 A 
ATOM     13  C   UNL     1      16.440  41.908  46.386  0.00  0.00    +0.000 A 
ATOM     14  C   UNL     1      18.634  43.597  46.094  0.00  0.00    +0.000 A 
ATOM     15  C   UNL     1      16.700  42.882  47.349  0.00  0.00    +0.000 A 
ATOM     16  C   UNL     1      17.803  43.719  47.210  0.00  0.00    +0.000 A 
ENDBRANCH   9  12
ENDBRANCH   3   9
ENDBRANCH   1   8
BRANCH   2  17
ATOM     17  N   UNL     1      23.935  39.567  46.860  0.00  0.00    +0.000 N 
ATOM     18  C   UNL     1      24.868  40.585  46.946  0.00  0.00    +0.000 C 
ATOM     19  O   UNL     1      25.776  40.750  46.145  0.00  0.00    +0.000 OA
ATOM     20  H   UNL     1      23.278  39.449  47.584  0.00  0.00    +0.000 HD
BRANCH  18  21
ATOM     21  C   UNL     1      24.843  41.420  48.182  0.00  0.00    +0.000 A 
ATOM     22  C   UNL     1      23.610  41.566  48.836  0.00  0.00    +0.000 A 
ATOM     23  C   UNL     1      25.994  41.999  48.731  0.00  0.00    +0.000 A 
ATOM     24  C   UNL     1      23.527  42.262  50.042  0.00  0.00    +0.000 A 
ATOM     25  C   UNL     1      25.908  42.693  49.943  0.00  0.00    +0.000 A 
ATOM     26  C   UNL     1      24.678  42.813  50.595  0.00  0.00    +0.000 A 
ATOM     27 BR   UNL     1      24.577  43.699  52.262  0.00  0.00    +0.000 Br
ENDBRANCH  18  21
ENDBRANCH   2  17
BRANCH   2  28
ATOM     28  C   UNL     1      24.630  37.396  45.873  0.00  0.00    +0.000 C 
ATOM     29  O   UNL     1      25.678  37.117  45.317  0.00  0.00    +0.000 OA
ATOM     30  OXT UNL     1      23.957  36.534  46.670  0.00  0.00    +0.000 OA
ENDBRANCH   2  28
TORSDOF 6
ENDMDL
MODEL 6
REMARK VINA RESULT:      -3.8      3.116      8.413
REMARK  Name = 320413
REMARK  6 active torsions:
REMARK  status: ('A' for Active; 'I' for Inactive)
REMARK    1  A    between atoms: C_3  and  O_5
REMARK    2  A    between atoms: O_5  and  C_8
REMARK    3  A    between atoms: C_14  and  C_15
REMARK    4  A    between atoms: CA_16  and  N_17
REMARK    5  A    between atoms: CA_16  and  C_18
REMARK    6  A    between atoms: C_19  and  C_23
REMARK                            x       y       z     vdW  Elec       q    Type
REMARK                         _______ _______ _______ _____ _____    ______ ____
ROOT
ATOM      1  C   UNL     1      23.139  38.823  44.606  0.00  0.00    +0.000 C 
ATOM      2  CA  UNL     1      23.951  38.725  45.673  0.00  0.00    +0.000 C 
ENDROOT
BRANCH   1   8
ATOM      3  C   UNL     1      19.451  40.905  44.344  0.00  0.00    +0.000 A 
ATOM      4  C   UNL     1      19.857  40.102  43.279  0.00  0.00    +0.000 A 
ATOM      5  C   UNL     1      20.359  41.226  45.358  0.00  0.00    +0.000 A 
ATOM      6  C   UNL     1      21.118  39.493  43.308  0.00  0.00    +0.000 A 
ATOM      7  C   UNL     1      21.608  40.601  45.397  0.00  0.00    +0.000 A 
ATOM      8  C   UNL     1      21.975  39.694  44.396  0.00  0.00    +0.000 A 
BRANCH   3   9
ATOM      9  O   UNL     1      18.138  41.328  44.365  0.00  0.00    +0.000 OA
BRANCH   9  12
ATOM     10 BR   UNL     1      17.171  43.069  46.728  0.00  0.00    +0.000 Br
ATOM     11  C   UNL     1      16.746  41.266  46.317  0.00  0.00    +0.000 A 
ATOM     12  C   UNL     1      17.250  40.634  45.173  0.00  0.00    +0.000 A 
ATOM     13  C   UNL     1      15.903  40.572  47.194  0.00  0.00    +0.000 A 
ATOM     14  C   UNL     1      16.819  39.331  44.876  0.00  0.00    +0.000 A 
ATOM     15  C   UNL     1      15.543  39.253  46.924  0.00  0.00    +0.000 A 
ATOM     16  C   UNL     1      15.991  38.635  45.760  0.00  0.00    +0.000 A 
ENDBRANCH   9  12
ENDBRANCH   3   9
ENDBRANCH   1   8
BRANCH   2  17
ATOM     17  N   UNL     1      23.955  39.566  46.780  0.00  0.00    +0.000 N 
ATOM     18  C   UNL     1      24.838  40.629  46.866  0.00  0.00    +0.000 C 
ATOM     19  O   UNL     1      25.720  40.852  46.050  0.00  0.00    +0.000 OA
ATOM     20  H   UNL     1      23.319  39.404  47.514  0.00  0.00    +0.000 HD
BRANCH  18  21
ATOM     21  C   UNL     1      24.793  41.443  48.116  0.00  0.00    +0.000 A 
ATOM     22  C   UNL     1      23.568  41.515  48.794  0.00  0.00    +0.000 A 
ATOM     23  C   UNL     1      25.924  42.071  48.652  0.00  0.00    +0.000 A 
ATOM     24  C   UNL     1      23.472  42.187  50.013  0.00  0.00    +0.000 A 
ATOM     25  C   UNL     1      25.826  42.741  49.876  0.00  0.00    +0.000 A 
ATOM     26  C   UNL     1      24.605  42.787  50.554  0.00  0.00    +0.000 A 
ATOM     27 BR   UNL     1      24.491  43.642  52.236  0.00  0.00    +0.000 Br
ENDBRANCH  18  21
ENDBRANCH   2  17
BRANCH   2  28
ATOM     28  C   UNL     1      24.935  37.591  45.637  0.00  0.00    +0.000 C 
ATOM     29  O   UNL     1      26.029  37.618  45.100  0.00  0.00    +0.000 OA
ATOM     30  OXT UNL     1      24.446  36.503  46.277  0.00  0.00    +0.000 OA
ENDBRANCH   2  28
TORSDOF 6
ENDMDL
MODEL 7
REMARK VINA RESULT:      -3.4      3.864      9.724
REMARK  Name = 320413
REMARK  6 active torsions:
REMARK  status: ('A' for Active; 'I' for Inactive)
REMARK    1  A    between atoms: C_3  and  O_5
REMARK    2  A    between atoms: O_5  and  C_8
REMARK    3  A    between atoms: C_14  and  C_15
REMARK    4  A    between atoms: CA_16  and  N_17
REMARK    5  A    between atoms: CA_16  and  C_18
REMARK    6  A    between atoms: C_19  and  C_23
REMARK                            x       y       z     vdW  Elec       q    Type
REMARK                         _______ _______ _______ _____ _____    ______ ____
ROOT
ATOM      1  C   UNL     1      24.067  41.841  48.845  0.00  0.00    +0.000 C 
ATOM      2  CA  UNL     1      24.917  42.842  49.136  0.00  0.00    +0.000 C 
ENDROOT
BRANCH   1   8
ATOM      3  C   UNL     1      21.641  40.614  45.587  0.00  0.00    +0.000 A 
ATOM      4  C   UNL     1      23.028  40.509  45.481  0.00  0.00    +0.000 A 
ATOM      5  C   UNL     1      21.077  41.351  46.633  0.00  0.00    +0.000 A 
ATOM      6  C   UNL     1      23.842  41.006  46.505  0.00  0.00    +0.000 A 
ATOM      7  C   UNL     1      21.890  41.828  47.665  0.00  0.00    +0.000 A 
ATOM      8  C   UNL     1      23.273  41.616  47.629  0.00  0.00    +0.000 A 
BRANCH   3   9
ATOM      9  O   UNL     1      20.874  39.946  44.655  0.00  0.00    +0.000 OA
BRANCH   9  12
ATOM     10 BR   UNL     1      18.262  38.315  44.395  0.00  0.00    +0.000 Br
ATOM     11  C   UNL     1      18.654  40.056  43.753  0.00  0.00    +0.000 A 
ATOM     12  C   UNL     1      19.892  40.667  43.992  0.00  0.00    +0.000 A 
ATOM     13  C   UNL     1      17.664  40.729  43.026  0.00  0.00    +0.000 A 
ATOM     14  C   UNL     1      20.082  41.994  43.574  0.00  0.00    +0.000 A 
ATOM     15  C   UNL     1      17.895  42.019  42.551  0.00  0.00    +0.000 A 
ATOM     16  C   UNL     1      19.100  42.657  42.835  0.00  0.00    +0.000 A 
ENDBRANCH   9  12
ENDBRANCH   3   9
ENDBRANCH   1   8
BRANCH   2  17
ATOM     17  N   UNL     1      25.357  43.826  48.258  0.00  0.00    +0.000 N 
ATOM     18  C   UNL     1      26.415  43.591  47.397  0.00  0.00    +0.000 C 
ATOM     19  O   UNL     1      27.089  42.572  47.404  0.00  0.00    +0.000 OA
ATOM     20  H   UNL     1      24.908  44.701  48.247  0.00  0.00    +0.000 HD
BRANCH  18  21
ATOM     21  C   UNL     1      26.841  44.727  46.528  0.00  0.00    +0.000 A 
ATOM     22  C   UNL     1      27.451  44.410  45.306  0.00  0.00    +0.000 A 
ATOM     23  C   UNL     1      26.602  46.067  46.860  0.00  0.00    +0.000 A 
ATOM     24  C   UNL     1      27.799  45.418  44.406  0.00  0.00    +0.000 A 
ATOM     25  C   UNL     1      26.948  47.075  45.953  0.00  0.00    +0.000 A 
ATOM     26  C   UNL     1      27.535  46.745  44.729  0.00  0.00    +0.000 A 
ATOM     27 BR   UNL     1      27.946  48.105  43.482  0.00  0.00    +0.000 Br
ENDBRANCH  18  21
ENDBRANCH   2  17
BRANCH   2  28
ATOM     28  C   UNL     1      25.418  42.874  50.551  0.00  0.00    +0.000 C 
ATOM     29  O   UNL     1      26.590  42.882  50.888  0.00  0.00    +0.000 OA
ATOM     30  OXT UNL     1      24.391  42.881  51.432  0.00  0.00    +0.000 OA
ENDBRANCH   2  28
TORSDOF 6
ENDMDL
