MODEL 1
REMARK VINA RESULT:      -7.5      0.000      0.000
REMARK  Name = 322029
REMARK  8 active torsions:
REMARK  status: ('A' for Active; 'I' for Inactive)
REMARK    1  A    between atoms: C_3  and  O_5
REMARK    2  A    between atoms: O_5  and  C_8
REMARK    3  A    between atoms: C_14  and  C_15
REMARK    4  A    between atoms: CA_16  and  N_17
REMARK    5  A    between atoms: CA_16  and  C_18
REMARK    6  A    between atoms: C_19  and  C_23
REMARK    7  A    between atoms: C_23  and  C_24
REMARK    8  A    between atoms: C_29  and  C_30
REMARK                            x       y       z     vdW  Elec       q    Type
REMARK                         _______ _______ _______ _____ _____    ______ ____
ROOT
ATOM      1  C   UNL     1      25.456  40.869  46.916  0.00  0.00    +0.000 C 
ATOM      2  CA  UNL     1      25.116  41.533  48.032  0.00  0.00    +0.000 C 
ENDROOT
BRANCH   1   8
ATOM      3  C   UNL     1      22.558  39.353  44.237  0.00  0.00    +0.000 A 
ATOM      4  C   UNL     1      22.740  38.728  45.471  0.00  0.00    +0.000 A 
ATOM      5  C   UNL     1      23.507  40.269  43.775  0.00  0.00    +0.000 A 
ATOM      6  C   UNL     1      23.781  39.137  46.311  0.00  0.00    +0.000 A 
ATOM      7  C   UNL     1      24.531  40.695  44.625  0.00  0.00    +0.000 A 
ATOM      8  C   UNL     1      24.641  40.166  45.917  0.00  0.00    +0.000 A 
BRANCH   3   9
ATOM      9  O   UNL     1      21.412  39.042  43.536  0.00  0.00    +0.000 OA
BRANCH   9  12
ATOM     10 BR   UNL     1      18.602  37.802  43.792  0.00  0.00    +0.000 Br
ATOM     11  C   UNL     1      19.087  39.608  43.466  0.00  0.00    +0.000 A 
ATOM     12  C   UNL     1      20.428  40.010  43.417  0.00  0.00    +0.000 A 
ATOM     13  C   UNL     1      18.060  40.540  43.280  0.00  0.00    +0.000 A 
ATOM     14  C   UNL     1      20.716  41.377  43.279  0.00  0.00    +0.000 A 
ATOM     15  C   UNL     1      18.364  41.885  43.063  0.00  0.00    +0.000 A 
ATOM     16  C   UNL     1      19.692  42.305  43.078  0.00  0.00    +0.000 A 
ENDBRANCH   9  12
ENDBRANCH   3   9
ENDBRANCH   1   8
BRANCH   2  17
ATOM     17  N   UNL     1      23.851  41.878  48.475  0.00  0.00    +0.000 N 
ATOM     18  C   UNL     1      22.826  42.341  47.667  0.00  0.00    +0.000 C 
ATOM     19  O   UNL     1      22.941  42.568  46.467  0.00  0.00    +0.000 OA
ATOM     20  H   UNL     1      23.665  41.785  49.438  0.00  0.00    +0.000 HD
BRANCH  18  21
ATOM     21  C   UNL     1      21.548  42.683  48.420  0.00  0.00    +0.000 C 
BRANCH  21  22
ATOM     22  C   UNL     1      20.282  42.113  47.830  0.00  0.00    +0.000 A 
ATOM     23  C   UNL     1      20.293  40.807  47.313  0.00  0.00    +0.000 A 
ATOM     24  C   UNL     1      19.066  42.805  47.876  0.00  0.00    +0.000 A 
ATOM     25  C   UNL     1      19.121  40.214  46.837  0.00  0.00    +0.000 A 
ATOM     26  C   UNL     1      17.893  42.214  47.396  0.00  0.00    +0.000 A 
ATOM     27  C   UNL     1      17.908  40.912  46.873  0.00  0.00    +0.000 A 
BRANCH  27  28
ATOM     28  C   UNL     1      16.625  40.285  46.384  0.00  0.00    +0.000 C 
ATOM     29  F   UNL     1      16.795  39.035  45.868  0.00  0.00    +0.000 F 
ATOM     30  F   UNL     1      15.697  40.154  47.373  0.00  0.00    +0.000 F 
ATOM     31  F   UNL     1      16.027  41.013  45.402  0.00  0.00    +0.000 F 
ENDBRANCH  27  28
ENDBRANCH  21  22
ENDBRANCH  18  21
ENDBRANCH   2  17
BRANCH   2  32
ATOM     32  C   UNL     1      26.274  41.902  48.918  0.00  0.00    +0.000 C 
ATOM     33  O   UNL     1      27.394  41.431  48.852  0.00  0.00    +0.000 OA
ATOM     34  OXT UNL     1      25.906  42.832  49.830  0.00  0.00    +0.000 OA
ENDBRANCH   2  32
TORSDOF 8
ENDMDL
MODEL 2
REMARK VINA RESULT:      -7.2      1.978      3.240
REMARK  Name = 322029
REMARK  8 active torsions:
REMARK  status: ('A' for Active; 'I' for Inactive)
REMARK    1  A    between atoms: C_3  and  O_5
REMARK    2  A    between atoms: O_5  and  C_8
REMARK    3  A    between atoms: C_14  and  C_15
REMARK    4  A    between atoms: CA_16  and  N_17
REMARK    5  A    between atoms: CA_16  and  C_18
REMARK    6  A    between atoms: C_19  and  C_23
REMARK    7  A    between atoms: C_23  and  C_24
REMARK    8  A    between atoms: C_29  and  C_30
REMARK                            x       y       z     vdW  Elec       q    Type
REMARK                         _______ _______ _______ _____ _____    ______ ____
ROOT
ATOM      1  C   UNL     1      23.762  40.280  44.771  0.00  0.00    +0.000 C 
ATOM      2  CA  UNL     1      24.032  41.046  45.841  0.00  0.00    +0.000 C 
ENDROOT
BRANCH   1   8
ATOM      3  C   UNL     1      19.785  39.392  43.645  0.00  0.00    +0.000 A 
ATOM      4  C   UNL     1      20.607  38.368  44.115  0.00  0.00    +0.000 A 
ATOM      5  C   UNL     1      20.346  40.618  43.275  0.00  0.00    +0.000 A 
ATOM      6  C   UNL     1      21.959  38.620  44.368  0.00  0.00    +0.000 A 
ATOM      7  C   UNL     1      21.691  40.878  43.552  0.00  0.00    +0.000 A 
ATOM      8  C   UNL     1      22.491  39.894  44.146  0.00  0.00    +0.000 A 
BRANCH   3   9
ATOM      9  O   UNL     1      18.431  39.141  43.592  0.00  0.00    +0.000 OA
BRANCH   9  12
ATOM     10 BR   UNL     1      17.300  36.299  43.975  0.00  0.00    +0.000 Br
ATOM     11  C   UNL     1      17.113  37.821  45.093  0.00  0.00    +0.000 A 
ATOM     12  C   UNL     1      17.731  39.039  44.784  0.00  0.00    +0.000 A 
ATOM     13  C   UNL     1      16.338  37.694  46.252  0.00  0.00    +0.000 A 
ATOM     14  C   UNL     1      17.642  40.093  45.707  0.00  0.00    +0.000 A 
ATOM     15  C   UNL     1      16.190  38.776  47.120  0.00  0.00    +0.000 A 
ATOM     16  C   UNL     1      16.855  39.970  46.855  0.00  0.00    +0.000 A 
ENDBRANCH   9  12
ENDBRANCH   3   9
ENDBRANCH   1   8
BRANCH   2  17
ATOM     17  N   UNL     1      23.160  41.830  46.576  0.00  0.00    +0.000 N 
ATOM     18  C   UNL     1      22.439  41.397  47.676  0.00  0.00    +0.000 C 
ATOM     19  O   UNL     1      22.436  40.242  48.089  0.00  0.00    +0.000 OA
ATOM     20  H   UNL     1      23.044  42.767  46.296  0.00  0.00    +0.000 HD
BRANCH  18  21
ATOM     21  C   UNL     1      21.524  42.456  48.275  0.00  0.00    +0.000 C 
BRANCH  21  22
ATOM     22  C   UNL     1      20.325  42.819  47.434  0.00  0.00    +0.000 A 
ATOM     23  C   UNL     1      20.466  42.905  46.039  0.00  0.00    +0.000 A 
ATOM     24  C   UNL     1      19.049  42.970  47.988  0.00  0.00    +0.000 A 
ATOM     25  C   UNL     1      19.361  43.154  45.220  0.00  0.00    +0.000 A 
ATOM     26  C   UNL     1      17.943  43.223  47.170  0.00  0.00    +0.000 A 
ATOM     27  C   UNL     1      18.087  43.316  45.778  0.00  0.00    +0.000 A 
BRANCH  27  28
ATOM     28  C   UNL     1      16.877  43.565  44.912  0.00  0.00    +0.000 C 
ATOM     29  F   UNL     1      15.972  44.414  45.475  0.00  0.00    +0.000 F 
ATOM     30  F   UNL     1      17.200  44.113  43.707  0.00  0.00    +0.000 F 
ATOM     31  F   UNL     1      16.189  42.424  44.633  0.00  0.00    +0.000 F 
ENDBRANCH  27  28
ENDBRANCH  21  22
ENDBRANCH  18  21
ENDBRANCH   2  17
BRANCH   2  32
ATOM     32  C   UNL     1      25.461  40.995  46.303  0.00  0.00    +0.000 C 
ATOM     33  O   UNL     1      26.016  41.835  46.986  0.00  0.00    +0.000 OA
ATOM     34  OXT UNL     1      26.077  39.880  45.842  0.00  0.00    +0.000 OA
ENDBRANCH   2  32
TORSDOF 8
ENDMDL
MODEL 3
REMARK VINA RESULT:      -6.5      1.638      2.016
REMARK  Name = 322029
REMARK  8 active torsions:
REMARK  status: ('A' for Active; 'I' for Inactive)
REMARK    1  A    between atoms: C_3  and  O_5
REMARK    2  A    between atoms: O_5  and  C_8
REMARK    3  A    between atoms: C_14  and  C_15
REMARK    4  A    between atoms: CA_16  and  N_17
REMARK    5  A    between atoms: CA_16  and  C_18
REMARK    6  A    between atoms: C_19  and  C_23
REMARK    7  A    between atoms: C_23  and  C_24
REMARK    8  A    between atoms: C_29  and  C_30
REMARK                            x       y       z     vdW  Elec       q    Type
REMARK                         _______ _______ _______ _____ _____    ______ ____
ROOT
ATOM      1  C   UNL     1      24.953  40.915  45.841  0.00  0.00    +0.000 C 
ATOM      2  CA  UNL     1      24.935  41.658  46.959  0.00  0.00    +0.000 C 
ENDROOT
BRANCH   1   8
ATOM      3  C   UNL     1      21.419  39.279  44.193  0.00  0.00    +0.000 A 
ATOM      4  C   UNL     1      22.444  38.424  44.598  0.00  0.00    +0.000 A 
ATOM      5  C   UNL     1      21.670  40.648  44.059  0.00  0.00    +0.000 A 
ATOM      6  C   UNL     1      23.666  38.953  45.023  0.00  0.00    +0.000 A 
ATOM      7  C   UNL     1      22.882  41.179  44.507  0.00  0.00    +0.000 A 
ATOM      8  C   UNL     1      23.867  40.337  45.039  0.00  0.00    +0.000 A 
BRANCH   3   9
ATOM      9  O   UNL     1      20.182  38.717  43.964  0.00  0.00    +0.000 OA
BRANCH   9  12
ATOM     10 BR   UNL     1      17.459  37.572  44.845  0.00  0.00    +0.000 Br
ATOM     11  C   UNL     1      17.830  39.151  43.859  0.00  0.00    +0.000 A 
ATOM     12  C   UNL     1      19.142  39.547  43.574  0.00  0.00    +0.000 A 
ATOM     13  C   UNL     1      16.746  39.922  43.422  0.00  0.00    +0.000 A 
ATOM     14  C   UNL     1      19.350  40.779  42.934  0.00  0.00    +0.000 A 
ATOM     15  C   UNL     1      16.966  41.104  42.714  0.00  0.00    +0.000 A 
ATOM     16  C   UNL     1      18.268  41.540  42.485  0.00  0.00    +0.000 A 
ENDBRANCH   9  12
ENDBRANCH   3   9
ENDBRANCH   1   8
BRANCH   2  17
ATOM     17  N   UNL     1      23.845  42.227  47.594  0.00  0.00    +0.000 N 
ATOM     18  C   UNL     1      22.778  41.522  48.125  0.00  0.00    +0.000 C 
ATOM     19  O   UNL     1      22.640  40.306  48.034  0.00  0.00    +0.000 OA
ATOM     20  H   UNL     1      23.827  43.209  47.674  0.00  0.00    +0.000 HD
BRANCH  18  21
ATOM     21  C   UNL     1      21.694  42.401  48.733  0.00  0.00    +0.000 C 
BRANCH  21  22
ATOM     22  C   UNL     1      20.455  42.570  47.888  0.00  0.00    +0.000 A 
ATOM     23  C   UNL     1      19.234  42.869  48.514  0.00  0.00    +0.000 A 
ATOM     24  C   UNL     1      20.502  42.543  46.489  0.00  0.00    +0.000 A 
ATOM     25  C   UNL     1      18.084  43.118  47.760  0.00  0.00    +0.000 A 
ATOM     26  C   UNL     1      19.352  42.788  45.735  0.00  0.00    +0.000 A 
ATOM     27  C   UNL     1      18.131  43.079  46.361  0.00  0.00    +0.000 A 
BRANCH  27  28
ATOM     28  C   UNL     1      16.907  43.365  45.526  0.00  0.00    +0.000 C 
ATOM     29  F   UNL     1      16.126  42.268  45.315  0.00  0.00    +0.000 F 
ATOM     30  F   UNL     1      16.091  44.296  46.096  0.00  0.00    +0.000 F 
ATOM     31  F   UNL     1      17.216  43.844  44.290  0.00  0.00    +0.000 F 
ENDBRANCH  27  28
ENDBRANCH  21  22
ENDBRANCH  18  21
ENDBRANCH   2  17
BRANCH   2  32
ATOM     32  C   UNL     1      26.278  41.844  47.608  0.00  0.00    +0.000 C 
ATOM     33  O   UNL     1      26.902  40.986  48.204  0.00  0.00    +0.000 OA
ATOM     34  OXT UNL     1      26.713  43.118  47.459  0.00  0.00    +0.000 OA
ENDBRANCH   2  32
TORSDOF 8
ENDMDL
MODEL 4
REMARK VINA RESULT:      -5.6      2.229      4.410
REMARK  Name = 322029
REMARK  8 active torsions:
REMARK  status: ('A' for Active; 'I' for Inactive)
REMARK    1  A    between atoms: C_3  and  O_5
REMARK    2  A    between atoms: O_5  and  C_8
REMARK    3  A    between atoms: C_14  and  C_15
REMARK    4  A    between atoms: CA_16  and  N_17
REMARK    5  A    between atoms: CA_16  and  C_18
REMARK    6  A    between atoms: C_19  and  C_23
REMARK    7  A    between atoms: C_23  and  C_24
REMARK    8  A    between atoms: C_29  and  C_30
REMARK                            x       y       z     vdW  Elec       q    Type
REMARK                         _______ _______ _______ _____ _____    ______ ____
ROOT
ATOM      1  C   UNL     1      22.268  42.605  49.167  0.00  0.00    +0.000 C 
ATOM      2  CA  UNL     1      23.527  42.199  48.938  0.00  0.00    +0.000 C 
ENDROOT
BRANCH   1   8
ATOM      3  C   UNL     1      18.595  41.725  47.269  0.00  0.00    +0.000 A 
ATOM      4  C   UNL     1      19.783  41.256  46.708  0.00  0.00    +0.000 A 
ATOM      5  C   UNL     1      18.635  42.707  48.263  0.00  0.00    +0.000 A 
ATOM      6  C   UNL     1      21.011  41.647  47.251  0.00  0.00    +0.000 A 
ATOM      7  C   UNL     1      19.861  43.078  48.822  0.00  0.00    +0.000 A 
ATOM      8  C   UNL     1      21.052  42.510  48.350  0.00  0.00    +0.000 A 
BRANCH   3   9
ATOM      9  O   UNL     1      17.419  41.164  46.816  0.00  0.00    +0.000 OA
BRANCH   9  12
ATOM     10 BR   UNL     1      16.926  38.301  45.788  0.00  0.00    +0.000 Br
ATOM     11  C   UNL     1      16.969  39.930  44.815  0.00  0.00    +0.000 A 
ATOM     12  C   UNL     1      17.172  41.160  45.453  0.00  0.00    +0.000 A 
ATOM     13  C   UNL     1      16.786  39.872  43.428  0.00  0.00    +0.000 A 
ATOM     14  C   UNL     1      17.086  42.336  44.691  0.00  0.00    +0.000 A 
ATOM     15  C   UNL     1      16.785  41.043  42.671  0.00  0.00    +0.000 A 
ATOM     16  C   UNL     1      16.919  42.276  43.305  0.00  0.00    +0.000 A 
ENDBRANCH   9  12
ENDBRANCH   3   9
ENDBRANCH   1   8
BRANCH   2  17
ATOM     17  N   UNL     1      24.002  41.419  47.898  0.00  0.00    +0.000 N 
ATOM     18  C   UNL     1      25.318  41.018  47.743  0.00  0.00    +0.000 C 
ATOM     19  O   UNL     1      26.238  41.367  48.476  0.00  0.00    +0.000 OA
ATOM     20  H   UNL     1      23.353  41.125  47.218  0.00  0.00    +0.000 HD
BRANCH  18  21
ATOM     21  C   UNL     1      25.572  40.196  46.487  0.00  0.00    +0.000 C 
BRANCH  21  22
ATOM     22  C   UNL     1      24.379  40.022  45.580  0.00  0.00    +0.000 A 
ATOM     23  C   UNL     1      23.687  38.800  45.585  0.00  0.00    +0.000 A 
ATOM     24  C   UNL     1      23.873  41.076  44.810  0.00  0.00    +0.000 A 
ATOM     25  C   UNL     1      22.526  38.630  44.824  0.00  0.00    +0.000 A 
ATOM     26  C   UNL     1      22.715  40.905  44.046  0.00  0.00    +0.000 A 
ATOM     27  C   UNL     1      22.029  39.682  44.046  0.00  0.00    +0.000 A 
BRANCH  27  28
ATOM     28  C   UNL     1      20.767  39.528  43.232  0.00  0.00    +0.000 C 
ATOM     29  F   UNL     1      19.961  38.519  43.667  0.00  0.00    +0.000 F 
ATOM     30  F   UNL     1      19.996  40.651  43.247  0.00  0.00    +0.000 F 
ATOM     31  F   UNL     1      21.018  39.263  41.921  0.00  0.00    +0.000 F 
ENDBRANCH  27  28
ENDBRANCH  21  22
ENDBRANCH  18  21
ENDBRANCH   2  17
BRANCH   2  32
ATOM     32  C   UNL     1      24.538  42.707  49.929  0.00  0.00    +0.000 C 
ATOM     33  O   UNL     1      25.488  43.421  49.669  0.00  0.00    +0.000 OA
ATOM     34  OXT UNL     1      24.265  42.248  51.173  0.00  0.00    +0.000 OA
ENDBRANCH   2  32
TORSDOF 8
ENDMDL
MODEL 5
REMARK VINA RESULT:      -5.3      1.488      2.255
REMARK  Name = 322029
REMARK  8 active torsions:
REMARK  status: ('A' for Active; 'I' for Inactive)
REMARK    1  A    between atoms: C_3  and  O_5
REMARK    2  A    between atoms: O_5  and  C_8
REMARK    3  A    between atoms: C_14  and  C_15
REMARK    4  A    between atoms: CA_16  and  N_17
REMARK    5  A    between atoms: CA_16  and  C_18
REMARK    6  A    between atoms: C_19  and  C_23
REMARK    7  A    between atoms: C_23  and  C_24
REMARK    8  A    between atoms: C_29  and  C_30
REMARK                            x       y       z     vdW  Elec       q    Type
REMARK                         _______ _______ _______ _____ _____    ______ ____
ROOT
ATOM      1  C   UNL     1      24.069  41.349  47.538  0.00  0.00    +0.000 C 
ATOM      2  CA  UNL     1      23.415  42.106  48.434  0.00  0.00    +0.000 C 
ENDROOT
BRANCH   1   8
ATOM      3  C   UNL     1      22.175  39.701  44.136  0.00  0.00    +0.000 A 
ATOM      4  C   UNL     1      21.817  39.246  45.405  0.00  0.00    +0.000 A 
ATOM      5  C   UNL     1      23.334  40.464  43.974  0.00  0.00    +0.000 A 
ATOM      6  C   UNL     1      22.524  39.686  46.529  0.00  0.00    +0.000 A 
ATOM      7  C   UNL     1      24.025  40.925  45.098  0.00  0.00    +0.000 A 
ATOM      8  C   UNL     1      23.591  40.578  46.383  0.00  0.00    +0.000 A 
BRANCH   3   9
ATOM      9  O   UNL     1      21.333  39.384  43.092  0.00  0.00    +0.000 OA
BRANCH   9  12
ATOM     10 BR   UNL     1      20.306  42.282  42.876  0.00  0.00    +0.000 Br
ATOM     11  C   UNL     1      19.342  40.700  43.285  0.00  0.00    +0.000 A 
ATOM     12  C   UNL     1      19.965  39.445  43.305  0.00  0.00    +0.000 A 
ATOM     13  C   UNL     1      17.975  40.817  43.565  0.00  0.00    +0.000 A 
ATOM     14  C   UNL     1      19.174  38.304  43.510  0.00  0.00    +0.000 A 
ATOM     15  C   UNL     1      17.217  39.681  43.848  0.00  0.00    +0.000 A 
ATOM     16  C   UNL     1      17.813  38.423  43.804  0.00  0.00    +0.000 A 
ENDBRANCH   9  12
ENDBRANCH   3   9
ENDBRANCH   1   8
BRANCH   2  17
ATOM     17  N   UNL     1      22.089  42.500  48.419  0.00  0.00    +0.000 N 
ATOM     18  C   UNL     1      21.387  42.887  47.290  0.00  0.00    +0.000 C 
ATOM     19  O   UNL     1      21.882  42.993  46.172  0.00  0.00    +0.000 OA
ATOM     20  H   UNL     1      21.606  42.505  49.279  0.00  0.00    +0.000 HD
BRANCH  18  21
ATOM     21  C   UNL     1      19.951  43.309  47.565  0.00  0.00    +0.000 C 
BRANCH  21  22
ATOM     22  C   UNL     1      18.926  42.207  47.461  0.00  0.00    +0.000 A 
ATOM     23  C   UNL     1      17.584  42.540  47.218  0.00  0.00    +0.000 A 
ATOM     24  C   UNL     1      19.286  40.855  47.494  0.00  0.00    +0.000 A 
ATOM     25  C   UNL     1      16.621  41.544  47.030  0.00  0.00    +0.000 A 
ATOM     26  C   UNL     1      18.323  39.858  47.310  0.00  0.00    +0.000 A 
ATOM     27  C   UNL     1      16.981  40.192  47.074  0.00  0.00    +0.000 A 
BRANCH  27  28
ATOM     28  C   UNL     1      15.963  39.100  46.854  0.00  0.00    +0.000 C 
ATOM     29  F   UNL     1      14.917  39.149  47.726  0.00  0.00    +0.000 F 
ATOM     30  F   UNL     1      15.409  39.146  45.610  0.00  0.00    +0.000 F 
ATOM     31  F   UNL     1      16.495  37.854  46.982  0.00  0.00    +0.000 F 
ENDBRANCH  27  28
ENDBRANCH  21  22
ENDBRANCH  18  21
ENDBRANCH   2  17
BRANCH   2  32
ATOM     32  C   UNL     1      24.242  42.531  49.615  0.00  0.00    +0.000 C 
ATOM     33  O   UNL     1      23.806  42.904  50.688  0.00  0.00    +0.000 OA
ATOM     34  OXT UNL     1      25.564  42.463  49.328  0.00  0.00    +0.000 OA
ENDBRANCH   2  32
TORSDOF 8
ENDMDL
MODEL 6
REMARK VINA RESULT:      -4.6      4.090      7.700
REMARK  Name = 322029
REMARK  8 active torsions:
REMARK  status: ('A' for Active; 'I' for Inactive)
REMARK    1  A    between atoms: C_3  and  O_5
REMARK    2  A    between atoms: O_5  and  C_8
REMARK    3  A    between atoms: C_14  and  C_15
REMARK    4  A    between atoms: CA_16  and  N_17
REMARK    5  A    between atoms: CA_16  and  C_18
REMARK    6  A    between atoms: C_19  and  C_23
REMARK    7  A    between atoms: C_23  and  C_24
REMARK    8  A    between atoms: C_29  and  C_30
REMARK                            x       y       z     vdW  Elec       q    Type
REMARK                         _______ _______ _______ _____ _____    ______ ____
ROOT
ATOM      1  C   UNL     1      17.864  42.314  44.090  0.00  0.00    +0.000 C 
ATOM      2  CA  UNL     1      17.942  41.256  43.266  0.00  0.00    +0.000 C 
ENDROOT
BRANCH   1   8
ATOM      3  C   UNL     1      20.709  42.924  47.157  0.00  0.00    +0.000 A 
ATOM      4  C   UNL     1      19.394  42.608  47.498  0.00  0.00    +0.000 A 
ATOM      5  C   UNL     1      21.012  43.320  45.852  0.00  0.00    +0.000 A 
ATOM      6  C   UNL     1      18.416  42.532  46.503  0.00  0.00    +0.000 A 
ATOM      7  C   UNL     1      20.041  43.218  44.852  0.00  0.00    +0.000 A 
ATOM      8  C   UNL     1      18.750  42.775  45.167  0.00  0.00    +0.000 A 
BRANCH   3   9
ATOM      9  O   UNL     1      21.664  42.803  48.145  0.00  0.00    +0.000 OA
BRANCH   9  12
ATOM     10 BR   UNL     1      24.135  43.119  49.960  0.00  0.00    +0.000 Br
ATOM     11  C   UNL     1      23.547  41.594  48.995  0.00  0.00    +0.000 A 
ATOM     12  C   UNL     1      22.368  41.613  48.239  0.00  0.00    +0.000 A 
ATOM     13  C   UNL     1      24.328  40.434  49.061  0.00  0.00    +0.000 A 
ATOM     14  C   UNL     1      21.934  40.421  47.638  0.00  0.00    +0.000 A 
ATOM     15  C   UNL     1      23.927  39.279  48.389  0.00  0.00    +0.000 A 
ATOM     16  C   UNL     1      22.722  39.268  47.691  0.00  0.00    +0.000 A 
ENDBRANCH   9  12
ENDBRANCH   3   9
ENDBRANCH   1   8
BRANCH   2  17
ATOM     17  N   UNL     1      18.993  40.371  43.102  0.00  0.00    +0.000 N 
ATOM     18  C   UNL     1      19.283  39.317  43.952  0.00  0.00    +0.000 C 
ATOM     19  O   UNL     1      18.680  39.084  44.995  0.00  0.00    +0.000 OA
ATOM     20  H   UNL     1      19.578  40.501  42.320  0.00  0.00    +0.000 HD
BRANCH  18  21
ATOM     21  C   UNL     1      20.521  38.524  43.557  0.00  0.00    +0.000 C 
BRANCH  21  22
ATOM     22  C   UNL     1      21.835  39.125  43.991  0.00  0.00    +0.000 A 
ATOM     23  C   UNL     1      21.973  40.523  44.024  0.00  0.00    +0.000 A 
ATOM     24  C   UNL     1      22.890  38.337  44.464  0.00  0.00    +0.000 A 
ATOM     25  C   UNL     1      23.144  41.117  44.502  0.00  0.00    +0.000 A 
ATOM     26  C   UNL     1      24.064  38.930  44.938  0.00  0.00    +0.000 A 
ATOM     27  C   UNL     1      24.203  40.326  44.963  0.00  0.00    +0.000 A 
BRANCH  27  28
ATOM     28  C   UNL     1      25.469  40.946  45.503  0.00  0.00    +0.000 C 
ATOM     29  F   UNL     1      25.244  41.971  46.371  0.00  0.00    +0.000 F 
ATOM     30  F   UNL     1      26.242  40.050  46.179  0.00  0.00    +0.000 F 
ATOM     31  F   UNL     1      26.260  41.458  44.521  0.00  0.00    +0.000 F 
ENDBRANCH  27  28
ENDBRANCH  21  22
ENDBRANCH  18  21
ENDBRANCH   2  17
BRANCH   2  32
ATOM     32  C   UNL     1      16.698  40.999  42.461  0.00  0.00    +0.000 C 
ATOM     33  O   UNL     1      16.284  41.696  41.555  0.00  0.00    +0.000 OA
ATOM     34  OXT UNL     1      16.071  39.877  42.888  0.00  0.00    +0.000 OA
ENDBRANCH   2  32
TORSDOF 8
ENDMDL
