MODEL 1
REMARK VINA RESULT:      -8.5      0.000      0.000
REMARK  Name = 323641
REMARK  6 active torsions:
REMARK  status: ('A' for Active; 'I' for Inactive)
REMARK    1  A    between atoms: C_3  and  O_5
REMARK    2  A    between atoms: O_5  and  C_8
REMARK    3  A    between atoms: C_14  and  C_15
REMARK    4  A    between atoms: CA_16  and  N_17
REMARK    5  A    between atoms: CA_16  and  C_18
REMARK    6  A    between atoms: C_19  and  C_23
REMARK                            x       y       z     vdW  Elec       q    Type
REMARK                         _______ _______ _______ _____ _____    ______ ____
ROOT
ATOM      1  C   UNL     1      20.110  41.855  43.460  0.00  0.00    +0.000 C 
ATOM      2  CA  UNL     1      18.829  41.450  43.416  0.00  0.00    +0.000 C 
ENDROOT
BRANCH   1   8
ATOM      3  C   UNL     1      22.534  41.002  46.832  0.00  0.00    +0.000 A 
ATOM      4  C   UNL     1      21.810  42.194  46.796  0.00  0.00    +0.000 A 
ATOM      5  C   UNL     1      22.661  40.230  45.673  0.00  0.00    +0.000 A 
ATOM      6  C   UNL     1      21.086  42.536  45.647  0.00  0.00    +0.000 A 
ATOM      7  C   UNL     1      21.918  40.555  44.539  0.00  0.00    +0.000 A 
ATOM      8  C   UNL     1      21.093  41.686  44.535  0.00  0.00    +0.000 A 
BRANCH   3   9
ATOM      9  O   UNL     1      23.073  40.614  48.040  0.00  0.00    +0.000 OA
BRANCH   9  12
ATOM     10 BR   UNL     1      25.827  40.596  46.636  0.00  0.00    +0.000 Br
ATOM     11  C   UNL     1      25.272  41.561  48.172  0.00  0.00    +0.000 A 
ATOM     12  C   UNL     1      23.960  41.479  48.658  0.00  0.00    +0.000 A 
ATOM     13  C   UNL     1      26.214  42.371  48.817  0.00  0.00    +0.000 A 
ATOM     14  C   UNL     1      23.588  42.295  49.738  0.00  0.00    +0.000 A 
ATOM     15  C   UNL     1      25.849  43.118  49.938  0.00  0.00    +0.000 A 
ATOM     16  C   UNL     1      24.534  43.092  50.391  0.00  0.00    +0.000 A 
ENDBRANCH   9  12
ENDBRANCH   3   9
ENDBRANCH   1   8
BRANCH   2  17
ATOM     17  N   UNL     1      18.190  40.633  44.330  0.00  0.00    +0.000 N 
ATOM     18  C   UNL     1      18.410  39.263  44.434  0.00  0.00    +0.000 C 
ATOM     19  O   UNL     1      19.099  38.623  43.652  0.00  0.00    +0.000 OA
ATOM     20  H   UNL     1      17.540  41.046  44.944  0.00  0.00    +0.000 HD
BRANCH  18  21
ATOM     21  C   UNL     1      17.523  38.616  45.489  0.00  0.00    +0.000 C 
ATOM     22  C   UNL     1      17.828  38.967  46.965  0.00  0.00    +0.000 C 
ATOM     23  C   UNL     1      16.029  38.963  45.353  0.00  0.00    +0.000 C 
ATOM     24  C   UNL     1      16.527  38.512  47.638  0.00  0.00    +0.000 C 
ATOM     25  C   UNL     1      17.760  40.480  47.237  0.00  0.00    +0.000 C 
ATOM     26  C   UNL     1      15.655  39.423  46.773  0.00  0.00    +0.000 C 
ATOM     27  C   UNL     1      16.278  40.807  47.019  0.00  0.00    +0.000 C 
ENDBRANCH  18  21
ENDBRANCH   2  17
BRANCH   2  28
ATOM     28  C   UNL     1      18.009  42.011  42.292  0.00  0.00    +0.000 C 
ATOM     29  O   UNL     1      17.082  41.445  41.740  0.00  0.00    +0.000 OA
ATOM     30  OXT UNL     1      18.455  43.239  41.934  0.00  0.00    +0.000 OA
ENDBRANCH   2  28
TORSDOF 6
ENDMDL
MODEL 2
REMARK VINA RESULT:      -8.4      0.928      1.776
REMARK  Name = 323641
REMARK  6 active torsions:
REMARK  status: ('A' for Active; 'I' for Inactive)
REMARK    1  A    between atoms: C_3  and  O_5
REMARK    2  A    between atoms: O_5  and  C_8
REMARK    3  A    between atoms: C_14  and  C_15
REMARK    4  A    between atoms: CA_16  and  N_17
REMARK    5  A    between atoms: CA_16  and  C_18
REMARK    6  A    between atoms: C_19  and  C_23
REMARK                            x       y       z     vdW  Elec       q    Type
REMARK                         _______ _______ _______ _____ _____    ______ ____
ROOT
ATOM      1  C   UNL     1      20.308  41.973  43.507  0.00  0.00    +0.000 C 
ATOM      2  CA  UNL     1      18.974  41.806  43.502  0.00  0.00    +0.000 C 
ENDROOT
BRANCH   1   8
ATOM      3  C   UNL     1      22.596  41.021  46.945  0.00  0.00    +0.000 A 
ATOM      4  C   UNL     1      22.060  42.302  46.816  0.00  0.00    +0.000 A 
ATOM      5  C   UNL     1      22.598  40.153  45.850  0.00  0.00    +0.000 A 
ATOM      6  C   UNL     1      21.389  42.662  45.641  0.00  0.00    +0.000 A 
ATOM      7  C   UNL     1      21.905  40.500  44.690  0.00  0.00    +0.000 A 
ATOM      8  C   UNL     1      21.260  41.739  44.597  0.00  0.00    +0.000 A 
BRANCH   3   9
ATOM      9  O   UNL     1      23.078  40.648  48.183  0.00  0.00    +0.000 OA
BRANCH   9  12
ATOM     10 BR   UNL     1      25.817  40.682  46.749  0.00  0.00    +0.000 Br
ATOM     11  C   UNL     1      25.273  41.605  48.314  0.00  0.00    +0.000 A 
ATOM     12  C   UNL     1      23.967  41.503  48.813  0.00  0.00    +0.000 A 
ATOM     13  C   UNL     1      26.218  42.405  48.970  0.00  0.00    +0.000 A 
ATOM     14  C   UNL     1      23.602  42.289  49.917  0.00  0.00    +0.000 A 
ATOM     15  C   UNL     1      25.860  43.121  50.113  0.00  0.00    +0.000 A 
ATOM     16  C   UNL     1      24.550  43.075  50.579  0.00  0.00    +0.000 A 
ENDBRANCH   9  12
ENDBRANCH   3   9
ENDBRANCH   1   8
BRANCH   2  17
ATOM     17  N   UNL     1      18.212  41.219  44.493  0.00  0.00    +0.000 N 
ATOM     18  C   UNL     1      17.630  41.921  45.545  0.00  0.00    +0.000 C 
ATOM     19  O   UNL     1      17.834  43.107  45.767  0.00  0.00    +0.000 OA
ATOM     20  H   UNL     1      18.071  40.245  44.454  0.00  0.00    +0.000 HD
BRANCH  18  21
ATOM     21  C   UNL     1      16.898  41.004  46.516  0.00  0.00    +0.000 C 
ATOM     22  C   UNL     1      15.924  39.973  45.897  0.00  0.00    +0.000 C 
ATOM     23  C   UNL     1      17.827  40.127  47.376  0.00  0.00    +0.000 C 
ATOM     24  C   UNL     1      15.746  39.009  47.076  0.00  0.00    +0.000 C 
ATOM     25  C   UNL     1      16.616  39.041  44.886  0.00  0.00    +0.000 C 
ATOM     26  C   UNL     1      17.244  38.717  47.181  0.00  0.00    +0.000 C 
ATOM     27  C   UNL     1      17.587  38.238  45.760  0.00  0.00    +0.000 C 
ENDBRANCH  18  21
ENDBRANCH   2  17
BRANCH   2  28
ATOM     28  C   UNL     1      18.251  42.389  42.322  0.00  0.00    +0.000 C 
ATOM     29  O   UNL     1      18.484  43.470  41.813  0.00  0.00    +0.000 OA
ATOM     30  OXT UNL     1      17.263  41.562  41.904  0.00  0.00    +0.000 OA
ENDBRANCH   2  28
TORSDOF 6
ENDMDL
MODEL 3
REMARK VINA RESULT:      -7.7      2.762      6.749
REMARK  Name = 323641
REMARK  6 active torsions:
REMARK  status: ('A' for Active; 'I' for Inactive)
REMARK    1  A    between atoms: C_3  and  O_5
REMARK    2  A    between atoms: O_5  and  C_8
REMARK    3  A    between atoms: C_14  and  C_15
REMARK    4  A    between atoms: CA_16  and  N_17
REMARK    5  A    between atoms: CA_16  and  C_18
REMARK    6  A    between atoms: C_19  and  C_23
REMARK                            x       y       z     vdW  Elec       q    Type
REMARK                         _______ _______ _______ _____ _____    ______ ____
ROOT
ATOM      1  C   UNL     1      23.715  41.138  45.990  0.00  0.00    +0.000 C 
ATOM      2  CA  UNL     1      23.416  41.797  47.123  0.00  0.00    +0.000 C 
ENDROOT
BRANCH   1   8
ATOM      3  C   UNL     1      20.669  39.599  43.474  0.00  0.00    +0.000 A 
ATOM      4  C   UNL     1      21.608  38.725  44.022  0.00  0.00    +0.000 A 
ATOM      5  C   UNL     1      20.880  40.980  43.542  0.00  0.00    +0.000 A 
ATOM      6  C   UNL     1      22.677  39.230  44.772  0.00  0.00    +0.000 A 
ATOM      7  C   UNL     1      21.929  41.483  44.312  0.00  0.00    +0.000 A 
ATOM      8  C   UNL     1      22.807  40.610  44.966  0.00  0.00    +0.000 A 
BRANCH   3   9
ATOM      9  O   UNL     1      19.536  39.053  42.910  0.00  0.00    +0.000 OA
BRANCH   9  12
ATOM     10 BR   UNL     1      17.379  41.254  42.658  0.00  0.00    +0.000 Br
ATOM     11  C   UNL     1      17.407  39.728  43.784  0.00  0.00    +0.000 A 
ATOM     12  C   UNL     1      18.458  38.802  43.743  0.00  0.00    +0.000 A 
ATOM     13  C   UNL     1      16.336  39.541  44.668  0.00  0.00    +0.000 A 
ATOM     14  C   UNL     1      18.369  37.643  44.530  0.00  0.00    +0.000 A 
ATOM     15  C   UNL     1      16.300  38.422  45.500  0.00  0.00    +0.000 A 
ATOM     16  C   UNL     1      17.307  37.466  45.423  0.00  0.00    +0.000 A 
ENDBRANCH   9  12
ENDBRANCH   3   9
ENDBRANCH   1   8
BRANCH   2  17
ATOM     17  N   UNL     1      22.173  42.266  47.502  0.00  0.00    +0.000 N 
ATOM     18  C   UNL     1      21.046  41.460  47.633  0.00  0.00    +0.000 C 
ATOM     19  O   UNL     1      21.011  40.281  47.310  0.00  0.00    +0.000 OA
ATOM     20  H   UNL     1      22.079  43.228  47.691  0.00  0.00    +0.000 HD
BRANCH  18  21
ATOM     21  C   UNL     1      19.805  42.261  48.007  0.00  0.00    +0.000 C 
ATOM     22  C   UNL     1      19.643  43.645  47.335  0.00  0.00    +0.000 C 
ATOM     23  C   UNL     1      18.477  41.557  47.672  0.00  0.00    +0.000 C 
ATOM     24  C   UNL     1      18.157  43.916  47.600  0.00  0.00    +0.000 C 
ATOM     25  C   UNL     1      19.634  43.558  45.799  0.00  0.00    +0.000 C 
ATOM     26  C   UNL     1      17.705  42.637  46.894  0.00  0.00    +0.000 C 
ATOM     27  C   UNL     1      18.343  42.786  45.502  0.00  0.00    +0.000 C 
ENDBRANCH  18  21
ENDBRANCH   2  17
BRANCH   2  28
ATOM     28  C   UNL     1      24.549  41.966  48.093  0.00  0.00    +0.000 C 
ATOM     29  O   UNL     1      25.732  41.853  47.827  0.00  0.00    +0.000 OA
ATOM     30  OXT UNL     1      24.085  42.234  49.337  0.00  0.00    +0.000 OA
ENDBRANCH   2  28
TORSDOF 6
ENDMDL
MODEL 4
REMARK VINA RESULT:      -7.5      1.754      2.669
REMARK  Name = 323641
REMARK  6 active torsions:
REMARK  status: ('A' for Active; 'I' for Inactive)
REMARK    1  A    between atoms: C_3  and  O_5
REMARK    2  A    between atoms: O_5  and  C_8
REMARK    3  A    between atoms: C_14  and  C_15
REMARK    4  A    between atoms: CA_16  and  N_17
REMARK    5  A    between atoms: CA_16  and  C_18
REMARK    6  A    between atoms: C_19  and  C_23
REMARK                            x       y       z     vdW  Elec       q    Type
REMARK                         _______ _______ _______ _____ _____    ______ ____
ROOT
ATOM      1  C   UNL     1      19.875  40.151  43.355  0.00  0.00    +0.000 C 
ATOM      2  CA  UNL     1      18.702  40.648  43.785  0.00  0.00    +0.000 C 
ENDROOT
BRANCH   1   8
ATOM      3  C   UNL     1      23.455  40.387  45.612  0.00  0.00    +0.000 A 
ATOM      4  C   UNL     1      22.746  41.555  45.334  0.00  0.00    +0.000 A 
ATOM      5  C   UNL     1      23.133  39.201  44.945  0.00  0.00    +0.000 A 
ATOM      6  C   UNL     1      21.618  41.506  44.506  0.00  0.00    +0.000 A 
ATOM      7  C   UNL     1      21.994  39.146  44.142  0.00  0.00    +0.000 A 
ATOM      8  C   UNL     1      21.206  40.288  43.954  0.00  0.00    +0.000 A 
BRANCH   3   9
ATOM      9  O   UNL     1      24.438  40.447  46.578  0.00  0.00    +0.000 OA
BRANCH   9  12
ATOM     10 BR   UNL     1      27.090  41.473  47.793  0.00  0.00    +0.000 Br
ATOM     11  C   UNL     1      25.310  41.770  48.377  0.00  0.00    +0.000 A 
ATOM     12  C   UNL     1      24.210  41.254  47.680  0.00  0.00    +0.000 A 
ATOM     13  C   UNL     1      25.116  42.531  49.538  0.00  0.00    +0.000 A 
ATOM     14  C   UNL     1      22.917  41.594  48.109  0.00  0.00    +0.000 A 
ATOM     15  C   UNL     1      23.825  42.796  49.996  0.00  0.00    +0.000 A 
ATOM     16  C   UNL     1      22.726  42.340  49.276  0.00  0.00    +0.000 A 
ENDBRANCH   9  12
ENDBRANCH   3   9
ENDBRANCH   1   8
BRANCH   2  17
ATOM     17  N   UNL     1      18.464  41.278  44.991  0.00  0.00    +0.000 N 
ATOM     18  C   UNL     1      18.286  40.606  46.196  0.00  0.00    +0.000 C 
ATOM     19  O   UNL     1      18.200  39.389  46.292  0.00  0.00    +0.000 OA
ATOM     20  H   UNL     1      18.419  42.262  44.998  0.00  0.00    +0.000 HD
BRANCH  18  21
ATOM     21  C   UNL     1      17.983  41.557  47.347  0.00  0.00    +0.000 C 
ATOM     22  C   UNL     1      19.186  42.314  47.958  0.00  0.00    +0.000 C 
ATOM     23  C   UNL     1      17.009  42.694  46.984  0.00  0.00    +0.000 C 
ATOM     24  C   UNL     1      18.461  43.427  48.724  0.00  0.00    +0.000 C 
ATOM     25  C   UNL     1      19.947  43.152  46.916  0.00  0.00    +0.000 C 
ATOM     26  C   UNL     1      17.752  43.949  47.473  0.00  0.00    +0.000 C 
ATOM     27  C   UNL     1      18.927  44.225  46.519  0.00  0.00    +0.000 C 
ENDBRANCH  18  21
ENDBRANCH   2  17
BRANCH   2  28
ATOM     28  C   UNL     1      17.564  40.562  42.809  0.00  0.00    +0.000 C 
ATOM     29  O   UNL     1      17.393  41.300  41.855  0.00  0.00    +0.000 OA
ATOM     30  OXT UNL     1      16.714  39.563  43.143  0.00  0.00    +0.000 OA
ENDBRANCH   2  28
TORSDOF 6
ENDMDL
MODEL 5
REMARK VINA RESULT:      -7.3      3.004      7.369
REMARK  Name = 323641
REMARK  6 active torsions:
REMARK  status: ('A' for Active; 'I' for Inactive)
REMARK    1  A    between atoms: C_3  and  O_5
REMARK    2  A    between atoms: O_5  and  C_8
REMARK    3  A    between atoms: C_14  and  C_15
REMARK    4  A    between atoms: CA_16  and  N_17
REMARK    5  A    between atoms: CA_16  and  C_18
REMARK    6  A    between atoms: C_19  and  C_23
REMARK                            x       y       z     vdW  Elec       q    Type
REMARK                         _______ _______ _______ _____ _____    ______ ____
ROOT
ATOM      1  C   UNL     1      21.857  42.580  48.665  0.00  0.00    +0.000 C 
ATOM      2  CA  UNL     1      22.918  41.952  48.130  0.00  0.00    +0.000 C 
ENDROOT
BRANCH   1   8
ATOM      3  C   UNL     1      18.057  42.921  46.818  0.00  0.00    +0.000 A 
ATOM      4  C   UNL     1      19.207  43.055  46.041  0.00  0.00    +0.000 A 
ATOM      5  C   UNL     1      18.153  42.933  48.212  0.00  0.00    +0.000 A 
ATOM      6  C   UNL     1      20.467  43.046  46.652  0.00  0.00    +0.000 A 
ATOM      7  C   UNL     1      19.408  42.895  48.820  0.00  0.00    +0.000 A 
ATOM      8  C   UNL     1      20.571  42.908  48.041  0.00  0.00    +0.000 A 
BRANCH   3   9
ATOM      9  O   UNL     1      16.857  42.744  46.162  0.00  0.00    +0.000 OA
BRANCH   9  12
ATOM     10 BR   UNL     1      16.463  39.784  46.964  0.00  0.00    +0.000 Br
ATOM     11  C   UNL     1      16.718  40.535  45.241  0.00  0.00    +0.000 A 
ATOM     12  C   UNL     1      16.844  41.917  45.051  0.00  0.00    +0.000 A 
ATOM     13  C   UNL     1      16.774  39.665  44.145  0.00  0.00    +0.000 A 
ATOM     14  C   UNL     1      16.931  42.415  43.741  0.00  0.00    +0.000 A 
ATOM     15  C   UNL     1      16.938  40.170  42.854  0.00  0.00    +0.000 A 
ATOM     16  C   UNL     1      17.002  41.544  42.650  0.00  0.00    +0.000 A 
ENDBRANCH   9  12
ENDBRANCH   3   9
ENDBRANCH   1   8
BRANCH   2  17
ATOM     17  N   UNL     1      22.974  41.327  46.899  0.00  0.00    +0.000 N 
ATOM     18  C   UNL     1      22.936  39.947  46.726  0.00  0.00    +0.000 C 
ATOM     19  O   UNL     1      22.971  39.144  47.648  0.00  0.00    +0.000 OA
ATOM     20  H   UNL     1      23.044  41.892  46.096  0.00  0.00    +0.000 HD
BRANCH  18  21
ATOM     21  C   UNL     1      23.073  39.545  45.263  0.00  0.00    +0.000 C 
ATOM     22  C   UNL     1      21.819  38.945  44.586  0.00  0.00    +0.000 C 
ATOM     23  C   UNL     1      23.449  40.707  44.325  0.00  0.00    +0.000 C 
ATOM     24  C   UNL     1      22.200  39.085  43.107  0.00  0.00    +0.000 C 
ATOM     25  C   UNL     1      20.607  39.892  44.645  0.00  0.00    +0.000 C 
ATOM     26  C   UNL     1      22.396  40.598  43.208  0.00  0.00    +0.000 C 
ATOM     27  C   UNL     1      21.042  41.070  43.766  0.00  0.00    +0.000 C 
ENDBRANCH  18  21
ENDBRANCH   2  17
BRANCH   2  28
ATOM     28  C   UNL     1      24.182  42.009  48.939  0.00  0.00    +0.000 C 
ATOM     29  O   UNL     1      25.281  41.646  48.561  0.00  0.00    +0.000 OA
ATOM     30  OXT UNL     1      23.940  42.495  50.179  0.00  0.00    +0.000 OA
ENDBRANCH   2  28
TORSDOF 6
ENDMDL
MODEL 6
REMARK VINA RESULT:      -7.0      2.786      7.480
REMARK  Name = 323641
REMARK  6 active torsions:
REMARK  status: ('A' for Active; 'I' for Inactive)
REMARK    1  A    between atoms: C_3  and  O_5
REMARK    2  A    between atoms: O_5  and  C_8
REMARK    3  A    between atoms: C_14  and  C_15
REMARK    4  A    between atoms: CA_16  and  N_17
REMARK    5  A    between atoms: CA_16  and  C_18
REMARK    6  A    between atoms: C_19  and  C_23
REMARK                            x       y       z     vdW  Elec       q    Type
REMARK                         _______ _______ _______ _____ _____    ______ ____
ROOT
ATOM      1  C   UNL     1      21.947  42.657  48.844  0.00  0.00    +0.000 C 
ATOM      2  CA  UNL     1      23.133  42.127  48.494  0.00  0.00    +0.000 C 
ENDROOT
BRANCH   1   8
ATOM      3  C   UNL     1      18.362  42.413  46.595  0.00  0.00    +0.000 A 
ATOM      4  C   UNL     1      19.584  42.480  45.926  0.00  0.00    +0.000 A 
ATOM      5  C   UNL     1      18.304  42.682  47.966  0.00  0.00    +0.000 A 
ATOM      6  C   UNL     1      20.768  42.662  46.651  0.00  0.00    +0.000 A 
ATOM      7  C   UNL     1      19.485  42.835  48.692  0.00  0.00    +0.000 A 
ATOM      8  C   UNL     1      20.725  42.783  48.045  0.00  0.00    +0.000 A 
BRANCH   3   9
ATOM      9  O   UNL     1      17.251  42.044  45.867  0.00  0.00    +0.000 OA
BRANCH   9  12
ATOM     10 BR   UNL     1      17.966  40.755  43.149  0.00  0.00    +0.000 Br
ATOM     11  C   UNL     1      17.134  39.974  44.663  0.00  0.00    +0.000 A 
ATOM     12  C   UNL     1      16.914  40.701  45.841  0.00  0.00    +0.000 A 
ATOM     13  C   UNL     1      16.739  38.632  44.579  0.00  0.00    +0.000 A 
ATOM     14  C   UNL     1      16.384  40.035  46.958  0.00  0.00    +0.000 A 
ATOM     15  C   UNL     1      16.142  38.005  45.673  0.00  0.00    +0.000 A 
ATOM     16  C   UNL     1      15.977  38.701  46.867  0.00  0.00    +0.000 A 
ENDBRANCH   9  12
ENDBRANCH   3   9
ENDBRANCH   1   8
BRANCH   2  17
ATOM     17  N   UNL     1      23.416  41.432  47.335  0.00  0.00    +0.000 N 
ATOM     18  C   UNL     1      23.411  40.043  47.240  0.00  0.00    +0.000 C 
ATOM     19  O   UNL     1      23.274  39.296  48.200  0.00  0.00    +0.000 OA
ATOM     20  H   UNL     1      23.635  41.949  46.526  0.00  0.00    +0.000 HD
BRANCH  18  21
ATOM     21  C   UNL     1      23.819  39.558  45.856  0.00  0.00    +0.000 C 
ATOM     22  C   UNL     1      22.742  38.805  45.038  0.00  0.00    +0.000 C 
ATOM     23  C   UNL     1      24.255  40.682  44.898  0.00  0.00    +0.000 C 
ATOM     24  C   UNL     1      23.351  38.878  43.633  0.00  0.00    +0.000 C 
ATOM     25  C   UNL     1      21.469  39.643  44.827  0.00  0.00    +0.000 C 
ATOM     26  C   UNL     1      23.412  40.406  43.641  0.00  0.00    +0.000 C 
ATOM     27  C   UNL     1      21.953  40.793  43.936  0.00  0.00    +0.000 C 
ENDBRANCH  18  21
ENDBRANCH   2  17
BRANCH   2  28
ATOM     28  C   UNL     1      24.266  42.392  49.442  0.00  0.00    +0.000 C 
ATOM     29  O   UNL     1      24.152  42.723  50.608  0.00  0.00    +0.000 OA
ATOM     30  OXT UNL     1      25.460  42.248  48.819  0.00  0.00    +0.000 OA
ENDBRANCH   2  28
TORSDOF 6
ENDMDL
MODEL 7
REMARK VINA RESULT:      -6.9      2.112      3.310
REMARK  Name = 323641
REMARK  6 active torsions:
REMARK  status: ('A' for Active; 'I' for Inactive)
REMARK    1  A    between atoms: C_3  and  O_5
REMARK    2  A    between atoms: O_5  and  C_8
REMARK    3  A    between atoms: C_14  and  C_15
REMARK    4  A    between atoms: CA_16  and  N_17
REMARK    5  A    between atoms: CA_16  and  C_18
REMARK    6  A    between atoms: C_19  and  C_23
REMARK                            x       y       z     vdW  Elec       q    Type
REMARK                         _______ _______ _______ _____ _____    ______ ____
ROOT
ATOM      1  C   UNL     1      20.939  39.254  43.920  0.00  0.00    +0.000 C 
ATOM      2  CA  UNL     1      19.812  39.909  44.249  0.00  0.00    +0.000 C 
ENDROOT
BRANCH   1   8
ATOM      3  C   UNL     1      24.700  40.027  45.716  0.00  0.00    +0.000 A 
ATOM      4  C   UNL     1      23.963  41.089  45.192  0.00  0.00    +0.000 A 
ATOM      5  C   UNL     1      24.328  38.711  45.425  0.00  0.00    +0.000 A 
ATOM      6  C   UNL     1      22.768  40.838  44.507  0.00  0.00    +0.000 A 
ATOM      7  C   UNL     1      23.123  38.461  44.768  0.00  0.00    +0.000 A 
ATOM      8  C   UNL     1      22.316  39.524  44.344  0.00  0.00    +0.000 A 
BRANCH   3   9
ATOM      9  O   UNL     1      25.762  40.328  46.542  0.00  0.00    +0.000 OA
BRANCH   9  12
ATOM     10 BR   UNL     1      23.410  39.368  48.305  0.00  0.00    +0.000 Br
ATOM     11  C   UNL     1      24.471  40.932  48.470  0.00  0.00    +0.000 A 
ATOM     12  C   UNL     1      25.533  41.197  47.596  0.00  0.00    +0.000 A 
ATOM     13  C   UNL     1      24.167  41.828  49.503  0.00  0.00    +0.000 A 
ATOM     14  C   UNL     1      26.340  42.321  47.834  0.00  0.00    +0.000 A 
ATOM     15  C   UNL     1      24.931  42.982  49.680  0.00  0.00    +0.000 A 
ATOM     16  C   UNL     1      26.025  43.222  48.856  0.00  0.00    +0.000 A 
ENDBRANCH   9  12
ENDBRANCH   3   9
ENDBRANCH   1   8
BRANCH   2  17
ATOM     17  N   UNL     1      19.682  40.904  45.199  0.00  0.00    +0.000 N 
ATOM     18  C   UNL     1      19.761  42.264  44.915  0.00  0.00    +0.000 C 
ATOM     19  O   UNL     1      20.071  42.715  43.821  0.00  0.00    +0.000 OA
ATOM     20  H   UNL     1      19.525  40.635  46.133  0.00  0.00    +0.000 HD
BRANCH  18  21
ATOM     21  C   UNL     1      19.640  43.122  46.168  0.00  0.00    +0.000 C 
ATOM     22  C   UNL     1      18.343  43.954  46.318  0.00  0.00    +0.000 C 
ATOM     23  C   UNL     1      19.693  42.325  47.484  0.00  0.00    +0.000 C 
ATOM     24  C   UNL     1      18.400  44.298  47.811  0.00  0.00    +0.000 C 
ATOM     25  C   UNL     1      17.076  43.080  46.288  0.00  0.00    +0.000 C 
ATOM     26  C   UNL     1      18.452  42.831  48.240  0.00  0.00    +0.000 C 
ATOM     27  C   UNL     1      17.198  42.246  47.569  0.00  0.00    +0.000 C 
ENDBRANCH  18  21
ENDBRANCH   2  17
BRANCH   2  28
ATOM     28  C   UNL     1      18.598  39.559  43.438  0.00  0.00    +0.000 C 
ATOM     29  O   UNL     1      17.979  40.326  42.723  0.00  0.00    +0.000 OA
ATOM     30  OXT UNL     1      18.246  38.266  43.629  0.00  0.00    +0.000 OA
ENDBRANCH   2  28
TORSDOF 6
ENDMDL
MODEL 8
REMARK VINA RESULT:      -5.5      3.156      7.870
REMARK  Name = 323641
REMARK  6 active torsions:
REMARK  status: ('A' for Active; 'I' for Inactive)
REMARK    1  A    between atoms: C_3  and  O_5
REMARK    2  A    between atoms: O_5  and  C_8
REMARK    3  A    between atoms: C_14  and  C_15
REMARK    4  A    between atoms: CA_16  and  N_17
REMARK    5  A    between atoms: CA_16  and  C_18
REMARK    6  A    between atoms: C_19  and  C_23
REMARK                            x       y       z     vdW  Elec       q    Type
REMARK                         _______ _______ _______ _____ _____    ______ ____
ROOT
ATOM      1  C   UNL     1      22.371  42.827  49.265  0.00  0.00    +0.000 C 
ATOM      2  CA  UNL     1      23.554  42.190  49.303  0.00  0.00    +0.000 C 
ENDROOT
BRANCH   1   8
ATOM      3  C   UNL     1      19.151  42.926  46.511  0.00  0.00    +0.000 A 
ATOM      4  C   UNL     1      18.881  42.766  47.869  0.00  0.00    +0.000 A 
ATOM      5  C   UNL     1      20.461  42.797  46.041  0.00  0.00    +0.000 A 
ATOM      6  C   UNL     1      19.937  42.630  48.779  0.00  0.00    +0.000 A 
ATOM      7  C   UNL     1      21.515  42.690  46.948  0.00  0.00    +0.000 A 
ATOM      8  C   UNL     1      21.260  42.650  48.324  0.00  0.00    +0.000 A 
BRANCH   3   9
ATOM      9  O   UNL     1      18.097  43.246  45.680  0.00  0.00    +0.000 OA
BRANCH   9  12
ATOM     10 BR   UNL     1      16.498  40.832  46.766  0.00  0.00    +0.000 Br
ATOM     11  C   UNL     1      17.090  41.180  44.998  0.00  0.00    +0.000 A 
ATOM     12  C   UNL     1      17.779  42.355  44.669  0.00  0.00    +0.000 A 
ATOM     13  C   UNL     1      16.816  40.223  44.012  0.00  0.00    +0.000 A 
ATOM     14  C   UNL     1      18.101  42.596  43.324  0.00  0.00    +0.000 A 
ATOM     15  C   UNL     1      17.211  40.443  42.691  0.00  0.00    +0.000 A 
ATOM     16  C   UNL     1      17.840  41.634  42.344  0.00  0.00    +0.000 A 
ENDBRANCH   9  12
ENDBRANCH   3   9
ENDBRANCH   1   8
BRANCH   2  17
ATOM     17  N   UNL     1      23.929  41.098  48.543  0.00  0.00    +0.000 N 
ATOM     18  C   UNL     1      24.830  41.161  47.485  0.00  0.00    +0.000 C 
ATOM     19  O   UNL     1      25.290  42.206  47.043  0.00  0.00    +0.000 OA
ATOM     20  H   UNL     1      23.535  40.223  48.764  0.00  0.00    +0.000 HD
BRANCH  18  21
ATOM     21  C   UNL     1      25.005  39.814  46.796  0.00  0.00    +0.000 C 
ATOM     22  C   UNL     1      23.833  38.813  46.920  0.00  0.00    +0.000 C 
ATOM     23  C   UNL     1      25.219  39.909  45.274  0.00  0.00    +0.000 C 
ATOM     24  C   UNL     1      24.179  37.831  45.794  0.00  0.00    +0.000 C 
ATOM     25  C   UNL     1      22.509  39.386  46.383  0.00  0.00    +0.000 C 
ATOM     26  C   UNL     1      24.178  38.920  44.721  0.00  0.00    +0.000 C 
ATOM     27  C   UNL     1      22.780  39.541  44.882  0.00  0.00    +0.000 C 
ENDBRANCH  18  21
ENDBRANCH   2  17
BRANCH   2  28
ATOM     28  C   UNL     1      24.583  42.786  50.219  0.00  0.00    +0.000 C 
ATOM     29  O   UNL     1      25.654  43.252  49.873  0.00  0.00    +0.000 OA
ATOM     30  OXT UNL     1      24.182  42.711  51.511  0.00  0.00    +0.000 OA
ENDBRANCH   2  28
TORSDOF 6
ENDMDL
