MODEL 1
REMARK VINA RESULT:      -8.3      0.000      0.000
REMARK  Name = 323583
REMARK  9 active torsions:
REMARK  status: ('A' for Active; 'I' for Inactive)
REMARK    1  A    between atoms: C_2  and  C_5
REMARK    2  A    between atoms: C_6  and  O_8
REMARK    3  A    between atoms: O_8  and  C_11
REMARK    4  A    between atoms: C_17  and  C_18
REMARK    5  A    between atoms: CA_19  and  N_20
REMARK    6  A    between atoms: CA_19  and  C_21
REMARK    7  A    between atoms: C_22  and  C_26
REMARK    8  A    between atoms: C_26  and  C_27
REMARK    9  A    between atoms: C_27  and  C_28
REMARK                            x       y       z     vdW  Elec       q    Type
REMARK                         _______ _______ _______ _____ _____    ______ ____
ROOT
ATOM      1  C   UNL     1      18.555  41.765  47.177  0.00  0.00    +0.000 A 
ATOM      2  C   UNL     1      18.896  42.754  48.109  0.00  0.00    +0.000 A 
ATOM      3  C   UNL     1      19.479  40.780  46.843  0.00  0.00    +0.000 A 
ATOM      4  C   UNL     1      20.213  42.872  48.558  0.00  0.00    +0.000 A 
ATOM      5  C   UNL     1      20.805  40.935  47.239  0.00  0.00    +0.000 A 
ATOM      6  C   UNL     1      21.187  42.000  48.060  0.00  0.00    +0.000 A 
ENDROOT
BRANCH   6   7
ATOM      7  C   UNL     1      22.619  42.278  48.249  0.00  0.00    +0.000 C 
ATOM      8  CA  UNL     1      23.685  41.734  47.651  0.00  0.00    +0.000 C 
BRANCH   8   9
ATOM      9  N   UNL     1      23.700  40.789  46.639  0.00  0.00    +0.000 N 
ATOM     10  C   UNL     1      23.691  39.418  46.815  0.00  0.00    +0.000 C 
ATOM     11  O   UNL     1      23.515  38.847  47.885  0.00  0.00    +0.000 OA
ATOM     12  H   UNL     1      23.720  41.123  45.712  0.00  0.00    +0.000 HD
BRANCH  10  13
ATOM     13  C   UNL     1      23.810  38.628  45.527  0.00  0.00    +0.000 C 
BRANCH  13  14
ATOM     14  C   UNL     1      23.873  39.611  44.357  0.00  0.00    +0.000 C 
BRANCH  14  15
ATOM     15  C   UNL     1      22.557  39.736  43.598  0.00  0.00    +0.000 C 
ATOM     16  C   UNL     1      21.989  41.155  43.685  0.00  0.00    +0.000 C 
ATOM     17  C   UNL     1      21.431  38.887  44.175  0.00  0.00    +0.000 C 
ATOM     18  C   UNL     1      20.495  41.004  43.423  0.00  0.00    +0.000 C 
ATOM     19  C   UNL     1      20.170  39.523  43.609  0.00  0.00    +0.000 C 
ENDBRANCH  14  15
ENDBRANCH  13  14
ENDBRANCH  10  13
ENDBRANCH   8   9
BRANCH   8  20
ATOM     20  C   UNL     1      25.009  42.194  48.202  0.00  0.00    +0.000 C 
ATOM     21  O   UNL     1      26.062  42.236  47.587  0.00  0.00    +0.000 OA
ATOM     22  OXT UNL     1      24.902  42.568  49.501  0.00  0.00    +0.000 OA
ENDBRANCH   8  20
ENDBRANCH   6   7
BRANCH   1  23
ATOM     23  O   UNL     1      17.317  41.901  46.593  0.00  0.00    +0.000 OA
BRANCH  23  25
ATOM     24  C   UNL     1      16.802  40.064  44.976  0.00  0.00    +0.000 A 
ATOM     25  C   UNL     1      17.079  41.393  45.336  0.00  0.00    +0.000 A 
ATOM     26  C   UNL     1      16.594  39.776  43.604  0.00  0.00    +0.000 A 
ATOM     27  C   UNL     1      17.245  42.363  44.329  0.00  0.00    +0.000 A 
ATOM     28  C   UNL     1      16.731  40.753  42.622  0.00  0.00    +0.000 A 
ATOM     29  C   UNL     1      17.075  42.042  42.982  0.00  0.00    +0.000 A 
BRANCH  24  31
ATOM     30  F   UNL     1      16.487  39.129  47.220  0.00  0.00    +0.000 F 
ATOM     31  C   UNL     1      16.695  38.874  45.904  0.00  0.00    +0.000 C 
ATOM     32  F   UNL     1      17.837  38.120  45.881  0.00  0.00    +0.000 F 
ATOM     33  F   UNL     1      15.704  38.017  45.516  0.00  0.00    +0.000 F 
ENDBRANCH  24  31
ENDBRANCH  23  25
ENDBRANCH   1  23
TORSDOF 9
ENDMDL
MODEL 2
REMARK VINA RESULT:      -8.1      3.395      7.564
REMARK  Name = 323583
REMARK  9 active torsions:
REMARK  status: ('A' for Active; 'I' for Inactive)
REMARK    1  A    between atoms: C_2  and  C_5
REMARK    2  A    between atoms: C_6  and  O_8
REMARK    3  A    between atoms: O_8  and  C_11
REMARK    4  A    between atoms: C_17  and  C_18
REMARK    5  A    between atoms: CA_19  and  N_20
REMARK    6  A    between atoms: CA_19  and  C_21
REMARK    7  A    between atoms: C_22  and  C_26
REMARK    8  A    between atoms: C_26  and  C_27
REMARK    9  A    between atoms: C_27  and  C_28
REMARK                            x       y       z     vdW  Elec       q    Type
REMARK                         _______ _______ _______ _____ _____    ______ ____
ROOT
ATOM      1  C   UNL     1      22.085  41.335  46.849  0.00  0.00    +0.000 A 
ATOM      2  C   UNL     1      21.663  42.645  46.589  0.00  0.00    +0.000 A 
ATOM      3  C   UNL     1      21.958  40.358  45.866  0.00  0.00    +0.000 A 
ATOM      4  C   UNL     1      20.944  42.934  45.428  0.00  0.00    +0.000 A 
ATOM      5  C   UNL     1      21.185  40.631  44.739  0.00  0.00    +0.000 A 
ATOM      6  C   UNL     1      20.641  41.901  44.535  0.00  0.00    +0.000 A 
ENDROOT
BRANCH   6   7
ATOM      7  C   UNL     1      19.631  42.084  43.481  0.00  0.00    +0.000 C 
ATOM      8  CA  UNL     1      18.331  41.763  43.472  0.00  0.00    +0.000 C 
BRANCH   8   9
ATOM      9  N   UNL     1      17.585  41.218  44.503  0.00  0.00    +0.000 N 
ATOM     10  C   UNL     1      16.994  41.925  45.532  0.00  0.00    +0.000 C 
ATOM     11  O   UNL     1      16.919  43.146  45.595  0.00  0.00    +0.000 OA
ATOM     12  H   UNL     1      17.466  40.239  44.503  0.00  0.00    +0.000 HD
BRANCH  10  13
ATOM     13  C   UNL     1      16.319  41.054  46.574  0.00  0.00    +0.000 C 
BRANCH  13  14
ATOM     14  C   UNL     1      17.380  40.169  47.229  0.00  0.00    +0.000 C 
BRANCH  14  15
ATOM     15  C   UNL     1      17.359  38.727  46.734  0.00  0.00    +0.000 C 
ATOM     16  C   UNL     1      18.208  38.552  45.472  0.00  0.00    +0.000 C 
ATOM     17  C   UNL     1      15.983  38.253  46.281  0.00  0.00    +0.000 C 
ATOM     18  C   UNL     1      17.656  37.307  44.789  0.00  0.00    +0.000 C 
ATOM     19  C   UNL     1      16.285  37.044  45.409  0.00  0.00    +0.000 C 
ENDBRANCH  14  15
ENDBRANCH  13  14
ENDBRANCH  10  13
ENDBRANCH   8   9
BRANCH   8  20
ATOM     20  C   UNL     1      17.643  41.995  42.153  0.00  0.00    +0.000 C 
ATOM     21  O   UNL     1      16.717  41.337  41.707  0.00  0.00    +0.000 OA
ATOM     22  OXT UNL     1      18.182  43.048  41.491  0.00  0.00    +0.000 OA
ENDBRANCH   8  20
ENDBRANCH   6   7
BRANCH   1  23
ATOM     23  O   UNL     1      22.536  41.099  48.126  0.00  0.00    +0.000 OA
BRANCH  23  25
ATOM     24  C   UNL     1      24.995  41.554  48.084  0.00  0.00    +0.000 A 
ATOM     25  C   UNL     1      23.689  41.697  48.582  0.00  0.00    +0.000 A 
ATOM     26  C   UNL     1      26.034  42.273  48.725  0.00  0.00    +0.000 A 
ATOM     27  C   UNL     1      23.473  42.452  49.750  0.00  0.00    +0.000 A 
ATOM     28  C   UNL     1      25.798  43.042  49.862  0.00  0.00    +0.000 A 
ATOM     29  C   UNL     1      24.521  43.117  50.386  0.00  0.00    +0.000 A 
BRANCH  24  31
ATOM     30  F   UNL     1      25.139  41.159  45.669  0.00  0.00    +0.000 F 
ATOM     31  C   UNL     1      25.432  40.703  46.912  0.00  0.00    +0.000 C 
ATOM     32  F   UNL     1      24.864  39.459  46.961  0.00  0.00    +0.000 F 
ATOM     33  F   UNL     1      26.779  40.471  46.930  0.00  0.00    +0.000 F 
ENDBRANCH  24  31
ENDBRANCH  23  25
ENDBRANCH   1  23
TORSDOF 9
ENDMDL
MODEL 3
REMARK VINA RESULT:      -8.0      2.314      4.933
REMARK  Name = 323583
REMARK  9 active torsions:
REMARK  status: ('A' for Active; 'I' for Inactive)
REMARK    1  A    between atoms: C_2  and  C_5
REMARK    2  A    between atoms: C_6  and  O_8
REMARK    3  A    between atoms: O_8  and  C_11
REMARK    4  A    between atoms: C_17  and  C_18
REMARK    5  A    between atoms: CA_19  and  N_20
REMARK    6  A    between atoms: CA_19  and  C_21
REMARK    7  A    between atoms: C_22  and  C_26
REMARK    8  A    between atoms: C_26  and  C_27
REMARK    9  A    between atoms: C_27  and  C_28
REMARK                            x       y       z     vdW  Elec       q    Type
REMARK                         _______ _______ _______ _____ _____    ______ ____
ROOT
ATOM      1  C   UNL     1      18.644  40.459  43.385  0.00  0.00    +0.000 A 
ATOM      2  C   UNL     1      19.314  39.230  43.332  0.00  0.00    +0.000 A 
ATOM      3  C   UNL     1      19.363  41.645  43.271  0.00  0.00    +0.000 A 
ATOM      4  C   UNL     1      20.709  39.188  43.359  0.00  0.00    +0.000 A 
ATOM      5  C   UNL     1      20.752  41.605  43.364  0.00  0.00    +0.000 A 
ATOM      6  C   UNL     1      21.428  40.385  43.450  0.00  0.00    +0.000 A 
ENDROOT
BRANCH   6   7
ATOM      7  C   UNL     1      22.857  40.383  43.801  0.00  0.00    +0.000 C 
ATOM      8  CA  UNL     1      23.448  40.513  44.995  0.00  0.00    +0.000 C 
BRANCH   8   9
ATOM      9  N   UNL     1      22.841  40.624  46.235  0.00  0.00    +0.000 N 
ATOM     10  C   UNL     1      22.266  41.770  46.750  0.00  0.00    +0.000 C 
ATOM     11  O   UNL     1      22.077  42.806  46.125  0.00  0.00    +0.000 OA
ATOM     12  H   UNL     1      22.818  39.816  46.798  0.00  0.00    +0.000 HD
BRANCH  10  13
ATOM     13  C   UNL     1      21.762  41.623  48.172  0.00  0.00    +0.000 C 
BRANCH  13  14
ATOM     14  C   UNL     1      22.504  42.625  49.057  0.00  0.00    +0.000 C 
BRANCH  14  15
ATOM     15  C   UNL     1      23.901  42.164  49.459  0.00  0.00    +0.000 C 
ATOM     16  C   UNL     1      24.530  43.107  50.488  0.00  0.00    +0.000 C 
ATOM     17  C   UNL     1      24.909  42.192  48.317  0.00  0.00    +0.000 C 
ATOM     18  C   UNL     1      26.033  42.894  50.359  0.00  0.00    +0.000 C 
ATOM     19  C   UNL     1      26.256  42.186  49.023  0.00  0.00    +0.000 C 
ENDBRANCH  14  15
ENDBRANCH  13  14
ENDBRANCH  10  13
ENDBRANCH   8   9
BRANCH   8  20
ATOM     20  C   UNL     1      24.952  40.587  44.940  0.00  0.00    +0.000 C 
ATOM     21  O   UNL     1      25.605  41.165  44.088  0.00  0.00    +0.000 OA
ATOM     22  OXT UNL     1      25.519  39.918  45.974  0.00  0.00    +0.000 OA
ENDBRANCH   8  20
ENDBRANCH   6   7
BRANCH   1  23
ATOM     23  O   UNL     1      17.293  40.389  43.630  0.00  0.00    +0.000 OA
BRANCH  23  25
ATOM     24  C   UNL     1      16.659  40.924  45.990  0.00  0.00    +0.000 A 
ATOM     25  C   UNL     1      16.826  40.071  44.885  0.00  0.00    +0.000 A 
ATOM     26  C   UNL     1      16.162  40.364  47.193  0.00  0.00    +0.000 A 
ATOM     27  C   UNL     1      16.602  38.690  45.037  0.00  0.00    +0.000 A 
ATOM     28  C   UNL     1      15.915  39.000  47.318  0.00  0.00    +0.000 A 
ATOM     29  C   UNL     1      16.152  38.159  46.246  0.00  0.00    +0.000 A 
BRANCH  24  31
ATOM     30  F   UNL     1      16.642  43.143  44.949  0.00  0.00    +0.000 F 
ATOM     31  C   UNL     1      16.952  42.407  46.045  0.00  0.00    +0.000 C 
ATOM     32  F   UNL     1      18.284  42.644  46.249  0.00  0.00    +0.000 F 
ATOM     33  F   UNL     1      16.326  43.007  47.102  0.00  0.00    +0.000 F 
ENDBRANCH  24  31
ENDBRANCH  23  25
ENDBRANCH   1  23
TORSDOF 9
ENDMDL
MODEL 4
REMARK VINA RESULT:      -7.9      1.615      2.461
REMARK  Name = 323583
REMARK  9 active torsions:
REMARK  status: ('A' for Active; 'I' for Inactive)
REMARK    1  A    between atoms: C_2  and  C_5
REMARK    2  A    between atoms: C_6  and  O_8
REMARK    3  A    between atoms: O_8  and  C_11
REMARK    4  A    between atoms: C_17  and  C_18
REMARK    5  A    between atoms: CA_19  and  N_20
REMARK    6  A    between atoms: CA_19  and  C_21
REMARK    7  A    between atoms: C_22  and  C_26
REMARK    8  A    between atoms: C_26  and  C_27
REMARK    9  A    between atoms: C_27  and  C_28
REMARK                            x       y       z     vdW  Elec       q    Type
REMARK                         _______ _______ _______ _____ _____    ______ ____
ROOT
ATOM      1  C   UNL     1      18.574  41.868  46.584  0.00  0.00    +0.000 A 
ATOM      2  C   UNL     1      19.423  40.777  46.808  0.00  0.00    +0.000 A 
ATOM      3  C   UNL     1      19.055  43.164  46.741  0.00  0.00    +0.000 A 
ATOM      4  C   UNL     1      20.686  40.974  47.373  0.00  0.00    +0.000 A 
ATOM      5  C   UNL     1      20.286  43.357  47.362  0.00  0.00    +0.000 A 
ATOM      6  C   UNL     1      21.087  42.268  47.719  0.00  0.00    +0.000 A 
ENDROOT
BRANCH   6   7
ATOM      7  C   UNL     1      22.248  42.491  48.594  0.00  0.00    +0.000 C 
ATOM      8  CA  UNL     1      23.513  42.074  48.464  0.00  0.00    +0.000 C 
BRANCH   8   9
ATOM      9  N   UNL     1      24.068  41.359  47.416  0.00  0.00    +0.000 N 
ATOM     10  C   UNL     1      24.104  39.982  47.310  0.00  0.00    +0.000 C 
ATOM     11  O   UNL     1      23.519  39.203  48.053  0.00  0.00    +0.000 OA
ATOM     12  H   UNL     1      24.471  41.878  46.682  0.00  0.00    +0.000 HD
BRANCH  10  13
ATOM     13  C   UNL     1      24.861  39.475  46.099  0.00  0.00    +0.000 C 
BRANCH  13  14
ATOM     14  C   UNL     1      24.751  40.516  44.984  0.00  0.00    +0.000 C 
BRANCH  14  15
ATOM     15  C   UNL     1      23.543  40.309  44.077  0.00  0.00    +0.000 C 
ATOM     16  C   UNL     1      22.461  41.362  44.332  0.00  0.00    +0.000 C 
ATOM     17  C   UNL     1      22.803  39.000  44.328  0.00  0.00    +0.000 C 
ATOM     18  C   UNL     1      21.165  40.732  43.835  0.00  0.00    +0.000 C 
ATOM     19  C   UNL     1      21.434  39.234  43.707  0.00  0.00    +0.000 C 
ENDBRANCH  14  15
ENDBRANCH  13  14
ENDBRANCH  10  13
ENDBRANCH   8   9
BRANCH   8  20
ATOM     20  C   UNL     1      24.399  42.400  49.638  0.00  0.00    +0.000 C 
ATOM     21  O   UNL     1      24.028  42.552  50.790  0.00  0.00    +0.000 OA
ATOM     22  OXT UNL     1      25.698  42.512  49.262  0.00  0.00    +0.000 OA
ENDBRANCH   8  20
ENDBRANCH   6   7
BRANCH   1  23
ATOM     23  O   UNL     1      17.268  41.553  46.289  0.00  0.00    +0.000 OA
BRANCH  23  25
ATOM     24  C   UNL     1      16.930  39.621  44.736  0.00  0.00    +0.000 A 
ATOM     25  C   UNL     1      16.913  40.257  45.989  0.00  0.00    +0.000 A 
ATOM     26  C   UNL     1      16.510  38.269  44.671  0.00  0.00    +0.000 A 
ATOM     27  C   UNL     1      16.386  39.577  47.103  0.00  0.00    +0.000 A 
ATOM     28  C   UNL     1      16.021  37.600  45.789  0.00  0.00    +0.000 A 
ATOM     29  C   UNL     1      15.941  38.259  47.002  0.00  0.00    +0.000 A 
BRANCH  24  31
ATOM     30  F   UNL     1      17.764  41.519  43.428  0.00  0.00    +0.000 F 
ATOM     31  C   UNL     1      17.357  40.226  43.417  0.00  0.00    +0.000 C 
ATOM     32  F   UNL     1      16.337  40.198  42.503  0.00  0.00    +0.000 F 
ATOM     33  F   UNL     1      18.364  39.509  42.835  0.00  0.00    +0.000 F 
ENDBRANCH  24  31
ENDBRANCH  23  25
ENDBRANCH   1  23
TORSDOF 9
ENDMDL
MODEL 5
REMARK VINA RESULT:      -7.8      3.494      7.649
REMARK  Name = 323583
REMARK  9 active torsions:
REMARK  status: ('A' for Active; 'I' for Inactive)
REMARK    1  A    between atoms: C_2  and  C_5
REMARK    2  A    between atoms: C_6  and  O_8
REMARK    3  A    between atoms: O_8  and  C_11
REMARK    4  A    between atoms: C_17  and  C_18
REMARK    5  A    between atoms: CA_19  and  N_20
REMARK    6  A    between atoms: CA_19  and  C_21
REMARK    7  A    between atoms: C_22  and  C_26
REMARK    8  A    between atoms: C_26  and  C_27
REMARK    9  A    between atoms: C_27  and  C_28
REMARK                            x       y       z     vdW  Elec       q    Type
REMARK                         _______ _______ _______ _____ _____    ______ ____
ROOT
ATOM      1  C   UNL     1      22.279  41.222  46.518  0.00  0.00    +0.000 A 
ATOM      2  C   UNL     1      21.644  42.464  46.390  0.00  0.00    +0.000 A 
ATOM      3  C   UNL     1      22.260  40.322  45.457  0.00  0.00    +0.000 A 
ATOM      4  C   UNL     1      20.832  42.727  45.285  0.00  0.00    +0.000 A 
ATOM      5  C   UNL     1      21.401  40.557  44.387  0.00  0.00    +0.000 A 
ATOM      6  C   UNL     1      20.653  41.736  44.315  0.00  0.00    +0.000 A 
ENDROOT
BRANCH   6   7
ATOM      7  C   UNL     1      19.577  41.839  43.317  0.00  0.00    +0.000 C 
ATOM      8  CA  UNL     1      18.259  41.644  43.453  0.00  0.00    +0.000 C 
BRANCH   8   9
ATOM      9  N   UNL     1      17.560  41.345  44.610  0.00  0.00    +0.000 N 
ATOM     10  C   UNL     1      17.086  42.264  45.526  0.00  0.00    +0.000 C 
ATOM     11  O   UNL     1      17.086  43.479  45.368  0.00  0.00    +0.000 OA
ATOM     12  H   UNL     1      17.385  40.393  44.796  0.00  0.00    +0.000 HD
BRANCH  10  13
ATOM     13  C   UNL     1      16.441  41.643  46.748  0.00  0.00    +0.000 C 
BRANCH  13  14
ATOM     14  C   UNL     1      17.450  40.702  47.407  0.00  0.00    +0.000 C 
BRANCH  14  15
ATOM     15  C   UNL     1      17.233  39.234  47.056  0.00  0.00    +0.000 C 
ATOM     16  C   UNL     1      18.108  38.801  45.878  0.00  0.00    +0.000 C 
ATOM     17  C   UNL     1      15.825  38.923  46.561  0.00  0.00    +0.000 C 
ATOM     18  C   UNL     1      17.407  37.585  45.285  0.00  0.00    +0.000 C 
ATOM     19  C   UNL     1      15.982  37.596  45.835  0.00  0.00    +0.000 C 
ENDBRANCH  14  15
ENDBRANCH  13  14
ENDBRANCH  10  13
ENDBRANCH   8   9
BRANCH   8  20
ATOM     20  C   UNL     1      17.484  41.722  42.163  0.00  0.00    +0.000 C 
ATOM     21  O   UNL     1      17.765  42.421  41.204  0.00  0.00    +0.000 OA
ATOM     22  OXT UNL     1      16.402  40.904  42.186  0.00  0.00    +0.000 OA
ENDBRANCH   8  20
ENDBRANCH   6   7
BRANCH   1  23
ATOM     23  O   UNL     1      22.823  40.957  47.753  0.00  0.00    +0.000 OA
BRANCH  23  25
ATOM     24  C   UNL     1      24.627  42.096  49.059  0.00  0.00    +0.000 A 
ATOM     25  C   UNL     1      24.133  41.284  48.024  0.00  0.00    +0.000 A 
ATOM     26  C   UNL     1      26.028  42.295  49.136  0.00  0.00    +0.000 A 
ATOM     27  C   UNL     1      25.019  40.789  47.049  0.00  0.00    +0.000 A 
ATOM     28  C   UNL     1      26.896  41.773  48.180  0.00  0.00    +0.000 A 
ATOM     29  C   UNL     1      26.390  41.035  47.126  0.00  0.00    +0.000 A 
BRANCH  24  31
ATOM     30  F   UNL     1      24.210  44.047  50.482  0.00  0.00    +0.000 F 
ATOM     31  C   UNL     1      23.819  42.798  50.127  0.00  0.00    +0.000 C 
ATOM     32  F   UNL     1      23.826  42.093  51.301  0.00  0.00    +0.000 F 
ATOM     33  F   UNL     1      22.499  42.890  49.785  0.00  0.00    +0.000 F 
ENDBRANCH  24  31
ENDBRANCH  23  25
ENDBRANCH   1  23
TORSDOF 9
ENDMDL
MODEL 6
REMARK VINA RESULT:      -7.8      3.308      7.498
REMARK  Name = 323583
REMARK  9 active torsions:
REMARK  status: ('A' for Active; 'I' for Inactive)
REMARK    1  A    between atoms: C_2  and  C_5
REMARK    2  A    between atoms: C_6  and  O_8
REMARK    3  A    between atoms: O_8  and  C_11
REMARK    4  A    between atoms: C_17  and  C_18
REMARK    5  A    between atoms: CA_19  and  N_20
REMARK    6  A    between atoms: CA_19  and  C_21
REMARK    7  A    between atoms: C_22  and  C_26
REMARK    8  A    between atoms: C_26  and  C_27
REMARK    9  A    between atoms: C_27  and  C_28
REMARK                            x       y       z     vdW  Elec       q    Type
REMARK                         _______ _______ _______ _____ _____    ______ ____
ROOT
ATOM      1  C   UNL     1      21.853  41.189  46.778  0.00  0.00    +0.000 A 
ATOM      2  C   UNL     1      21.601  42.486  46.314  0.00  0.00    +0.000 A 
ATOM      3  C   UNL     1      21.529  40.093  45.983  0.00  0.00    +0.000 A 
ATOM      4  C   UNL     1      20.855  42.683  45.150  0.00  0.00    +0.000 A 
ATOM      5  C   UNL     1      20.731  40.287  44.859  0.00  0.00    +0.000 A 
ATOM      6  C   UNL     1      20.355  41.573  44.461  0.00  0.00    +0.000 A 
ENDROOT
BRANCH   6   7
ATOM      7  C   UNL     1      19.315  41.728  43.432  0.00  0.00    +0.000 C 
ATOM      8  CA  UNL     1      18.030  41.351  43.448  0.00  0.00    +0.000 C 
BRANCH   8   9
ATOM      9  N   UNL     1      17.332  40.759  44.486  0.00  0.00    +0.000 N 
ATOM     10  C   UNL     1      17.214  39.400  44.707  0.00  0.00    +0.000 C 
ATOM     11  O   UNL     1      17.834  38.532  44.104  0.00  0.00    +0.000 OA
ATOM     12  H   UNL     1      16.880  41.359  45.124  0.00  0.00    +0.000 HD
BRANCH  10  13
ATOM     13  C   UNL     1      16.308  39.038  45.867  0.00  0.00    +0.000 C 
BRANCH  13  14
ATOM     14  C   UNL     1      16.814  39.751  47.121  0.00  0.00    +0.000 C 
BRANCH  14  15
ATOM     15  C   UNL     1      17.483  41.090  46.832  0.00  0.00    +0.000 C 
ATOM     16  C   UNL     1      18.515  41.447  47.904  0.00  0.00    +0.000 C 
ATOM     17  C   UNL     1      16.527  42.276  46.876  0.00  0.00    +0.000 C 
ATOM     18  C   UNL     1      18.657  42.963  47.832  0.00  0.00    +0.000 C 
ATOM     19  C   UNL     1      17.446  43.475  47.055  0.00  0.00    +0.000 C 
ENDBRANCH  14  15
ENDBRANCH  13  14
ENDBRANCH  10  13
ENDBRANCH   8   9
BRANCH   8  20
ATOM     20  C   UNL     1      17.302  41.571  42.148  0.00  0.00    +0.000 C 
ATOM     21  O   UNL     1      16.280  41.005  41.798  0.00  0.00    +0.000 OA
ATOM     22  OXT UNL     1      17.928  42.498  41.381  0.00  0.00    +0.000 OA
ENDBRANCH   8  20
ENDBRANCH   6   7
BRANCH   1  23
ATOM     23  O   UNL     1      22.348  41.101  48.058  0.00  0.00    +0.000 OA
BRANCH  23  25
ATOM     24  C   UNL     1      24.813  41.395  47.749  0.00  0.00    +0.000 A 
ATOM     25  C   UNL     1      23.576  41.639  48.370  0.00  0.00    +0.000 A 
ATOM     26  C   UNL     1      25.954  42.067  48.253  0.00  0.00    +0.000 A 
ATOM     27  C   UNL     1      23.528  42.447  49.522  0.00  0.00    +0.000 A 
ATOM     28  C   UNL     1      25.884  42.888  49.374  0.00  0.00    +0.000 A 
ATOM     29  C   UNL     1      24.675  43.064  50.021  0.00  0.00    +0.000 A 
BRANCH  24  31
ATOM     30  F   UNL     1      24.598  40.863  45.366  0.00  0.00    +0.000 F 
ATOM     31  C   UNL     1      25.074  40.477  46.576  0.00  0.00    +0.000 C 
ATOM     32  F   UNL     1      24.525  39.240  46.779  0.00  0.00    +0.000 F 
ATOM     33  F   UNL     1      26.409  40.240  46.406  0.00  0.00    +0.000 F 
ENDBRANCH  24  31
ENDBRANCH  23  25
ENDBRANCH   1  23
TORSDOF 9
ENDMDL
MODEL 7
REMARK VINA RESULT:      -7.6      2.243      4.374
REMARK  Name = 323583
REMARK  9 active torsions:
REMARK  status: ('A' for Active; 'I' for Inactive)
REMARK    1  A    between atoms: C_2  and  C_5
REMARK    2  A    between atoms: C_6  and  O_8
REMARK    3  A    between atoms: O_8  and  C_11
REMARK    4  A    between atoms: C_17  and  C_18
REMARK    5  A    between atoms: CA_19  and  N_20
REMARK    6  A    between atoms: CA_19  and  C_21
REMARK    7  A    between atoms: C_22  and  C_26
REMARK    8  A    between atoms: C_26  and  C_27
REMARK    9  A    between atoms: C_27  and  C_28
REMARK                            x       y       z     vdW  Elec       q    Type
REMARK                         _______ _______ _______ _____ _____    ______ ____
ROOT
ATOM      1  C   UNL     1      21.059  39.692  43.327  0.00  0.00    +0.000 A 
ATOM      2  C   UNL     1      21.908  38.656  43.736  0.00  0.00    +0.000 A 
ATOM      3  C   UNL     1      21.424  41.017  43.551  0.00  0.00    +0.000 A 
ATOM      4  C   UNL     1      23.020  38.932  44.534  0.00  0.00    +0.000 A 
ATOM      5  C   UNL     1      22.495  41.287  44.399  0.00  0.00    +0.000 A 
ATOM      6  C   UNL     1      23.269  40.251  44.928  0.00  0.00    +0.000 A 
ENDROOT
BRANCH   6   7
ATOM      7  C   UNL     1      24.220  40.550  46.010  0.00  0.00    +0.000 C 
ATOM      8  CA  UNL     1      24.075  41.329  47.089  0.00  0.00    +0.000 C 
BRANCH   8   9
ATOM      9  N   UNL     1      22.943  42.017  47.493  0.00  0.00    +0.000 N 
ATOM     10  C   UNL     1      21.678  41.479  47.629  0.00  0.00    +0.000 C 
ATOM     11  O   UNL     1      21.408  40.286  47.557  0.00  0.00    +0.000 OA
ATOM     12  H   UNL     1      23.050  42.974  47.702  0.00  0.00    +0.000 HD
BRANCH  10  13
ATOM     13  C   UNL     1      20.611  42.492  47.994  0.00  0.00    +0.000 C 
BRANCH  13  14
ATOM     14  C   UNL     1      20.238  43.281  46.738  0.00  0.00    +0.000 C 
BRANCH  14  15
ATOM     15  C   UNL     1      18.767  43.157  46.357  0.00  0.00    +0.000 C 
ATOM     16  C   UNL     1      17.922  44.255  47.008  0.00  0.00    +0.000 C 
ATOM     17  C   UNL     1      18.107  41.880  46.864  0.00  0.00    +0.000 C 
ATOM     18  C   UNL     1      16.503  43.702  47.039  0.00  0.00    +0.000 C 
ATOM     19  C   UNL     1      16.620  42.196  46.811  0.00  0.00    +0.000 C 
ENDBRANCH  14  15
ENDBRANCH  13  14
ENDBRANCH  10  13
ENDBRANCH   8   9
BRANCH   8  20
ATOM     20  C   UNL     1      25.325  41.488  47.914  0.00  0.00    +0.000 C 
ATOM     21  O   UNL     1      26.431  41.067  47.619  0.00  0.00    +0.000 OA
ATOM     22  OXT UNL     1      25.080  42.173  49.058  0.00  0.00    +0.000 OA
ENDBRANCH   8  20
ENDBRANCH   6   7
BRANCH   1  23
ATOM     23  O   UNL     1      19.858  39.298  42.786  0.00  0.00    +0.000 OA
BRANCH  23  25
ATOM     24  C   UNL     1      17.708  40.202  43.692  0.00  0.00    +0.000 A 
ATOM     25  C   UNL     1      18.726  39.241  43.568  0.00  0.00    +0.000 A 
ATOM     26  C   UNL     1      16.632  39.922  44.570  0.00  0.00    +0.000 A 
ATOM     27  C   UNL     1      18.700  38.096  44.387  0.00  0.00    +0.000 A 
ATOM     28  C   UNL     1      16.606  38.770  45.351  0.00  0.00    +0.000 A 
ATOM     29  C   UNL     1      17.648  37.866  45.274  0.00  0.00    +0.000 A 
BRANCH  24  31
ATOM     30  F   UNL     1      18.716  42.336  43.030  0.00  0.00    +0.000 F 
ATOM     31  C   UNL     1      17.625  41.533  42.978  0.00  0.00    +0.000 C 
ATOM     32  F   UNL     1      16.611  42.304  43.480  0.00  0.00    +0.000 F 
ATOM     33  F   UNL     1      17.321  41.379  41.655  0.00  0.00    +0.000 F 
ENDBRANCH  24  31
ENDBRANCH  23  25
ENDBRANCH   1  23
TORSDOF 9
ENDMDL
MODEL 8
REMARK VINA RESULT:      -7.5      3.563      7.585
REMARK  Name = 323583
REMARK  9 active torsions:
REMARK  status: ('A' for Active; 'I' for Inactive)
REMARK    1  A    between atoms: C_2  and  C_5
REMARK    2  A    between atoms: C_6  and  O_8
REMARK    3  A    between atoms: O_8  and  C_11
REMARK    4  A    between atoms: C_17  and  C_18
REMARK    5  A    between atoms: CA_19  and  N_20
REMARK    6  A    between atoms: CA_19  and  C_21
REMARK    7  A    between atoms: C_22  and  C_26
REMARK    8  A    between atoms: C_26  and  C_27
REMARK    9  A    between atoms: C_27  and  C_28
REMARK                            x       y       z     vdW  Elec       q    Type
REMARK                         _______ _______ _______ _____ _____    ______ ____
ROOT
ATOM      1  C   UNL     1      21.950  41.225  46.384  0.00  0.00    +0.000 A 
ATOM      2  C   UNL     1      21.488  42.501  46.039  0.00  0.00    +0.000 A 
ATOM      3  C   UNL     1      21.753  40.158  45.512  0.00  0.00    +0.000 A 
ATOM      4  C   UNL     1      20.667  42.674  44.923  0.00  0.00    +0.000 A 
ATOM      5  C   UNL     1      20.884  40.316  44.436  0.00  0.00    +0.000 A 
ATOM      6  C   UNL     1      20.305  41.558  44.160  0.00  0.00    +0.000 A 
ENDROOT
BRANCH   6   7
ATOM      7  C   UNL     1      19.206  41.634  43.186  0.00  0.00    +0.000 C 
ATOM      8  CA  UNL     1      17.927  41.255  43.303  0.00  0.00    +0.000 C 
BRANCH   8   9
ATOM      9  N   UNL     1      17.293  40.740  44.421  0.00  0.00    +0.000 N 
ATOM     10  C   UNL     1      17.262  39.408  44.787  0.00  0.00    +0.000 C 
ATOM     11  O   UNL     1      17.916  38.517  44.259  0.00  0.00    +0.000 OA
ATOM     12  H   UNL     1      16.824  41.379  45.006  0.00  0.00    +0.000 HD
BRANCH  10  13
ATOM     13  C   UNL     1      16.411  39.122  46.008  0.00  0.00    +0.000 C 
BRANCH  13  14
ATOM     14  C   UNL     1      17.015  39.856  47.206  0.00  0.00    +0.000 C 
BRANCH  14  15
ATOM     15  C   UNL     1      17.585  41.227  46.855  0.00  0.00    +0.000 C 
ATOM     16  C   UNL     1      18.612  41.691  47.890  0.00  0.00    +0.000 C 
ATOM     17  C   UNL     1      16.551  42.346  46.882  0.00  0.00    +0.000 C 
ATOM     18  C   UNL     1      18.649  43.209  47.763  0.00  0.00    +0.000 C 
ATOM     19  C   UNL     1      17.389  43.610  46.998  0.00  0.00    +0.000 C 
ENDBRANCH  14  15
ENDBRANCH  13  14
ENDBRANCH  10  13
ENDBRANCH   8   9
BRANCH   8  20
ATOM     20  C   UNL     1      17.124  41.378  42.034  0.00  0.00    +0.000 C 
ATOM     21  O   UNL     1      17.447  42.012  41.044  0.00  0.00    +0.000 OA
ATOM     22  OXT UNL     1      15.962  40.682  42.115  0.00  0.00    +0.000 OA
ENDBRANCH   8  20
ENDBRANCH   6   7
BRANCH   1  23
ATOM     23  O   UNL     1      22.512  41.113  47.634  0.00  0.00    +0.000 OA
BRANCH  23  25
ATOM     24  C   UNL     1      24.480  42.079  48.838  0.00  0.00    +0.000 A 
ATOM     25  C   UNL     1      23.857  41.340  47.818  0.00  0.00    +0.000 A 
ATOM     26  C   UNL     1      25.894  42.179  48.817  0.00  0.00    +0.000 A 
ATOM     27  C   UNL     1      24.634  40.821  46.766  0.00  0.00    +0.000 A 
ATOM     28  C   UNL     1      26.652  41.633  47.786  0.00  0.00    +0.000 A 
ATOM     29  C   UNL     1      26.021  40.969  46.750  0.00  0.00    +0.000 A 
BRANCH  24  31
ATOM     30  F   UNL     1      24.285  44.017  50.325  0.00  0.00    +0.000 F 
ATOM     31  C   UNL     1      23.803  42.797  49.984  0.00  0.00    +0.000 C 
ATOM     32  F   UNL     1      23.873  42.067  51.140  0.00  0.00    +0.000 F 
ATOM     33  F   UNL     1      22.465  42.961  49.757  0.00  0.00    +0.000 F 
ENDBRANCH  24  31
ENDBRANCH  23  25
ENDBRANCH   1  23
TORSDOF 9
ENDMDL
MODEL 9
REMARK VINA RESULT:      -7.4      1.840      2.475
REMARK  Name = 323583
REMARK  9 active torsions:
REMARK  status: ('A' for Active; 'I' for Inactive)
REMARK    1  A    between atoms: C_2  and  C_5
REMARK    2  A    between atoms: C_6  and  O_8
REMARK    3  A    between atoms: O_8  and  C_11
REMARK    4  A    between atoms: C_17  and  C_18
REMARK    5  A    between atoms: CA_19  and  N_20
REMARK    6  A    between atoms: CA_19  and  C_21
REMARK    7  A    between atoms: C_22  and  C_26
REMARK    8  A    between atoms: C_26  and  C_27
REMARK    9  A    between atoms: C_27  and  C_28
REMARK                            x       y       z     vdW  Elec       q    Type
REMARK                         _______ _______ _______ _____ _____    ______ ____
ROOT
ATOM      1  C   UNL     1      18.905  41.496  47.186  0.00  0.00    +0.000 A 
ATOM      2  C   UNL     1      20.101  41.067  46.597  0.00  0.00    +0.000 A 
ATOM      3  C   UNL     1      18.927  42.502  48.148  0.00  0.00    +0.000 A 
ATOM      4  C   UNL     1      21.328  41.502  47.102  0.00  0.00    +0.000 A 
ATOM      5  C   UNL     1      20.149  42.886  48.694  0.00  0.00    +0.000 A 
ATOM      6  C   UNL     1      21.349  42.361  48.206  0.00  0.00    +0.000 A 
ENDROOT
BRANCH   6   7
ATOM      7  C   UNL     1      22.589  42.588  48.963  0.00  0.00    +0.000 C 
ATOM      8  CA  UNL     1      23.840  42.191  48.701  0.00  0.00    +0.000 C 
BRANCH   8   9
ATOM      9  N   UNL     1      24.296  41.499  47.592  0.00  0.00    +0.000 N 
ATOM     10  C   UNL     1      24.285  40.126  47.438  0.00  0.00    +0.000 C 
ATOM     11  O   UNL     1      23.733  39.337  48.196  0.00  0.00    +0.000 OA
ATOM     12  H   UNL     1      24.660  42.032  46.848  0.00  0.00    +0.000 HD
BRANCH  10  13
ATOM     13  C   UNL     1      24.937  39.641  46.159  0.00  0.00    +0.000 C 
BRANCH  13  14
ATOM     14  C   UNL     1      24.041  38.573  45.530  0.00  0.00    +0.000 C 
BRANCH  14  15
ATOM     15  C   UNL     1      23.254  39.073  44.324  0.00  0.00    +0.000 C 
ATOM     16  C   UNL     1      23.216  40.602  44.270  0.00  0.00    +0.000 C 
ATOM     17  C   UNL     1      21.776  38.701  44.359  0.00  0.00    +0.000 C 
ATOM     18  C   UNL     1      21.989  40.942  43.433  0.00  0.00    +0.000 C 
ATOM     19  C   UNL     1      21.135  39.676  43.384  0.00  0.00    +0.000 C 
ENDBRANCH  14  15
ENDBRANCH  13  14
ENDBRANCH  10  13
ENDBRANCH   8   9
BRANCH   8  20
ATOM     20  C   UNL     1      24.835  42.514  49.786  0.00  0.00    +0.000 C 
ATOM     21  O   UNL     1      26.036  42.660  49.631  0.00  0.00    +0.000 OA
ATOM     22  OXT UNL     1      24.230  42.628  50.994  0.00  0.00    +0.000 OA
ENDBRANCH   8  20
ENDBRANCH   6   7
BRANCH   1  23
ATOM     23  O   UNL     1      17.775  40.809  46.806  0.00  0.00    +0.000 OA
BRANCH  23  25
ATOM     24  C   UNL     1      17.012  41.843  44.660  0.00  0.00    +0.000 A 
ATOM     25  C   UNL     1      17.393  40.770  45.484  0.00  0.00    +0.000 A 
ATOM     26  C   UNL     1      16.652  41.556  43.320  0.00  0.00    +0.000 A 
ATOM     27  C   UNL     1      17.304  39.454  44.992  0.00  0.00    +0.000 A 
ATOM     28  C   UNL     1      16.598  40.251  42.839  0.00  0.00    +0.000 A 
ATOM     29  C   UNL     1      16.906  39.198  43.680  0.00  0.00    +0.000 A 
BRANCH  24  31
ATOM     30  F   UNL     1      16.315  44.144  44.185  0.00  0.00    +0.000 F 
ATOM     31  C   UNL     1      16.942  43.304  45.045  0.00  0.00    +0.000 C 
ATOM     32  F   UNL     1      18.192  43.841  45.196  0.00  0.00    +0.000 F 
ATOM     33  F   UNL     1      16.341  43.478  46.261  0.00  0.00    +0.000 F 
ENDBRANCH  24  31
ENDBRANCH  23  25
ENDBRANCH   1  23
TORSDOF 9
ENDMDL
