MODEL 1
REMARK VINA RESULT:      -8.1      0.000      0.000
REMARK  Name = 322226
REMARK  9 active torsions:
REMARK  status: ('A' for Active; 'I' for Inactive)
REMARK    1  A    between atoms: C_3  and  O_5
REMARK    2  A    between atoms: O_5  and  C_8
REMARK    3  A    between atoms: C_14  and  C_15
REMARK    4  A    between atoms: CA_16  and  N_17
REMARK    5  A    between atoms: CA_16  and  C_18
REMARK    6  A    between atoms: C_19  and  C_23
REMARK    7  A    between atoms: C_23  and  C_24
REMARK    8  A    between atoms: C_24  and  C_25
REMARK    9  A    between atoms: C_30  and  C_31
REMARK                            x       y       z     vdW  Elec       q    Type
REMARK                         _______ _______ _______ _____ _____    ______ ____
ROOT
ATOM      1  C   UNL     1      25.548  40.553  46.892  0.00  0.00    +0.000 C 
ATOM      2  CA  UNL     1      25.432  41.566  47.770  0.00  0.00    +0.000 C 
ENDROOT
BRANCH   1   8
ATOM      3  C   UNL     1      22.495  39.317  44.174  0.00  0.00    +0.000 A 
ATOM      4  C   UNL     1      22.982  38.382  45.073  0.00  0.00    +0.000 A 
ATOM      5  C   UNL     1      23.157  40.530  44.003  0.00  0.00    +0.000 A 
ATOM      6  C   UNL     1      24.040  38.727  45.925  0.00  0.00    +0.000 A 
ATOM      7  C   UNL     1      24.184  40.885  44.878  0.00  0.00    +0.000 A 
ATOM      8  C   UNL     1      24.601  40.011  45.893  0.00  0.00    +0.000 A 
BRANCH   3   9
ATOM      9  O   UNL     1      21.327  39.013  43.506  0.00  0.00    +0.000 OA
BRANCH   9  12
ATOM     10 BR   UNL     1      18.493  37.841  43.818  0.00  0.00    +0.000 Br
ATOM     11  C   UNL     1      19.015  39.640  43.516  0.00  0.00    +0.000 A 
ATOM     12  C   UNL     1      20.364  40.008  43.440  0.00  0.00    +0.000 A 
ATOM     13  C   UNL     1      18.016  40.607  43.372  0.00  0.00    +0.000 A 
ATOM     14  C   UNL     1      20.691  41.369  43.310  0.00  0.00    +0.000 A 
ATOM     15  C   UNL     1      18.355  41.944  43.161  0.00  0.00    +0.000 A 
ATOM     16  C   UNL     1      19.693  42.327  43.143  0.00  0.00    +0.000 A 
ENDBRANCH   9  12
ENDBRANCH   3   9
ENDBRANCH   1   8
BRANCH   2  17
ATOM     17  N   UNL     1      24.268  42.289  47.970  0.00  0.00    +0.000 N 
ATOM     18  C   UNL     1      23.092  41.674  48.368  0.00  0.00    +0.000 C 
ATOM     19  O   UNL     1      23.000  40.469  48.573  0.00  0.00    +0.000 OA
ATOM     20  H   UNL     1      24.277  43.263  47.827  0.00  0.00    +0.000 HD
BRANCH  18  21
ATOM     21  C   UNL     1      21.902  42.608  48.438  0.00  0.00    +0.000 C 
BRANCH  21  22
ATOM     22  C   UNL     1      21.215  42.698  47.078  0.00  0.00    +0.000 C 
BRANCH  22  23
ATOM     23  C   UNL     1      19.966  41.862  47.008  0.00  0.00    +0.000 A 
ATOM     24  C   UNL     1      20.047  40.463  47.019  0.00  0.00    +0.000 A 
ATOM     25  C   UNL     1      18.709  42.471  46.923  0.00  0.00    +0.000 A 
ATOM     26  C   UNL     1      18.889  39.686  46.936  0.00  0.00    +0.000 A 
ATOM     27  C   UNL     1      17.552  41.693  46.841  0.00  0.00    +0.000 A 
ATOM     28  C   UNL     1      17.630  40.293  46.833  0.00  0.00    +0.000 A 
BRANCH  28  29
ATOM     29  C   UNL     1      16.375  39.468  46.690  0.00  0.00    +0.000 C 
ATOM     30  F   UNL     1      15.329  39.934  47.429  0.00  0.00    +0.000 F 
ATOM     31  F   UNL     1      15.928  39.409  45.405  0.00  0.00    +0.000 F 
ATOM     32  F   UNL     1      16.560  38.176  47.081  0.00  0.00    +0.000 F 
ENDBRANCH  28  29
ENDBRANCH  22  23
ENDBRANCH  21  22
ENDBRANCH  18  21
ENDBRANCH   2  17
BRANCH   2  33
ATOM     33  C   UNL     1      26.619  41.835  48.649  0.00  0.00    +0.000 C 
ATOM     34  O   UNL     1      27.699  41.278  48.544  0.00  0.00    +0.000 OA
ATOM     35  OXT UNL     1      26.345  42.738  49.617  0.00  0.00    +0.000 OA
ENDBRANCH   2  33
TORSDOF 9
ENDMDL
MODEL 2
REMARK VINA RESULT:      -7.7      2.148      3.882
REMARK  Name = 322226
REMARK  9 active torsions:
REMARK  status: ('A' for Active; 'I' for Inactive)
REMARK    1  A    between atoms: C_3  and  O_5
REMARK    2  A    between atoms: O_5  and  C_8
REMARK    3  A    between atoms: C_14  and  C_15
REMARK    4  A    between atoms: CA_16  and  N_17
REMARK    5  A    between atoms: CA_16  and  C_18
REMARK    6  A    between atoms: C_19  and  C_23
REMARK    7  A    between atoms: C_23  and  C_24
REMARK    8  A    between atoms: C_24  and  C_25
REMARK    9  A    between atoms: C_30  and  C_31
REMARK                            x       y       z     vdW  Elec       q    Type
REMARK                         _______ _______ _______ _____ _____    ______ ____
ROOT
ATOM      1  C   UNL     1      22.614  41.682  47.763  0.00  0.00    +0.000 C 
ATOM      2  CA  UNL     1      23.137  40.480  47.459  0.00  0.00    +0.000 C 
ENDROOT
BRANCH   1   8
ATOM      3  C   UNL     1      19.159  43.451  45.982  0.00  0.00    +0.000 A 
ATOM      4  C   UNL     1      20.371  43.591  45.327  0.00  0.00    +0.000 A 
ATOM      5  C   UNL     1      19.124  42.971  47.289  0.00  0.00    +0.000 A 
ATOM      6  C   UNL     1      21.540  43.095  45.921  0.00  0.00    +0.000 A 
ATOM      7  C   UNL     1      20.282  42.443  47.861  0.00  0.00    +0.000 A 
ATOM      8  C   UNL     1      21.497  42.442  47.160  0.00  0.00    +0.000 A 
BRANCH   3   9
ATOM      9  O   UNL     1      18.013  43.759  45.279  0.00  0.00    +0.000 OA
BRANCH   9  12
ATOM     10 BR   UNL     1      16.185  41.612  46.525  0.00  0.00    +0.000 Br
ATOM     11  C   UNL     1      16.794  41.770  44.735  0.00  0.00    +0.000 A 
ATOM     12  C   UNL     1      17.595  42.844  44.326  0.00  0.00    +0.000 A 
ATOM     13  C   UNL     1      16.422  40.784  43.817  0.00  0.00    +0.000 A 
ATOM     14  C   UNL     1      17.936  42.959  42.968  0.00  0.00    +0.000 A 
ATOM     15  C   UNL     1      16.836  40.868  42.487  0.00  0.00    +0.000 A 
ATOM     16  C   UNL     1      17.583  41.962  42.060  0.00  0.00    +0.000 A 
ENDBRANCH   9  12
ENDBRANCH   3   9
ENDBRANCH   1   8
BRANCH   2  17
ATOM     17  N   UNL     1      22.743  39.714  46.376  0.00  0.00    +0.000 N 
ATOM     18  C   UNL     1      23.214  39.968  45.098  0.00  0.00    +0.000 C 
ATOM     19  O   UNL     1      24.004  40.869  44.840  0.00  0.00    +0.000 OA
ATOM     20  H   UNL     1      22.113  38.971  46.517  0.00  0.00    +0.000 HD
BRANCH  18  21
ATOM     21  C   UNL     1      22.596  39.093  44.028  0.00  0.00    +0.000 C 
BRANCH  21  22
ATOM     22  C   UNL     1      21.323  39.736  43.484  0.00  0.00    +0.000 C 
BRANCH  22  23
ATOM     23  C   UNL     1      20.087  39.262  44.201  0.00  0.00    +0.000 A 
ATOM     24  C   UNL     1      19.722  39.824  45.431  0.00  0.00    +0.000 A 
ATOM     25  C   UNL     1      19.294  38.249  43.651  0.00  0.00    +0.000 A 
ATOM     26  C   UNL     1      18.585  39.373  46.106  0.00  0.00    +0.000 A 
ATOM     27  C   UNL     1      18.157  37.799  44.326  0.00  0.00    +0.000 A 
ATOM     28  C   UNL     1      17.798  38.346  45.567  0.00  0.00    +0.000 A 
BRANCH  28  29
ATOM     29  C   UNL     1      16.598  37.811  46.308  0.00  0.00    +0.000 C 
ATOM     30  F   UNL     1      16.382  38.419  47.508  0.00  0.00    +0.000 F 
ATOM     31  F   UNL     1      15.440  37.952  45.604  0.00  0.00    +0.000 F 
ATOM     32  F   UNL     1      16.710  36.481  46.580  0.00  0.00    +0.000 F 
ENDBRANCH  28  29
ENDBRANCH  22  23
ENDBRANCH  21  22
ENDBRANCH  18  21
ENDBRANCH   2  17
BRANCH   2  33
ATOM     33  C   UNL     1      24.292  40.017  48.299  0.00  0.00    +0.000 C 
ATOM     34  O   UNL     1      24.234  39.120  49.123  0.00  0.00    +0.000 OA
ATOM     35  OXT UNL     1      25.411  40.744  48.077  0.00  0.00    +0.000 OA
ENDBRANCH   2  33
TORSDOF 9
ENDMDL
MODEL 3
REMARK VINA RESULT:      -7.3      3.889      7.380
REMARK  Name = 322226
REMARK  9 active torsions:
REMARK  status: ('A' for Active; 'I' for Inactive)
REMARK    1  A    between atoms: C_3  and  O_5
REMARK    2  A    between atoms: O_5  and  C_8
REMARK    3  A    between atoms: C_14  and  C_15
REMARK    4  A    between atoms: CA_16  and  N_17
REMARK    5  A    between atoms: CA_16  and  C_18
REMARK    6  A    between atoms: C_19  and  C_23
REMARK    7  A    between atoms: C_23  and  C_24
REMARK    8  A    between atoms: C_24  and  C_25
REMARK    9  A    between atoms: C_30  and  C_31
REMARK                            x       y       z     vdW  Elec       q    Type
REMARK                         _______ _______ _______ _____ _____    ______ ____
ROOT
ATOM      1  C   UNL     1      18.029  39.805  47.155  0.00  0.00    +0.000 C 
ATOM      2  CA  UNL     1      17.117  39.670  46.176  0.00  0.00    +0.000 C 
ENDROOT
BRANCH   1   8
ATOM      3  C   UNL     1      21.576  42.068  47.888  0.00  0.00    +0.000 A 
ATOM      4  C   UNL     1      20.371  42.749  47.829  0.00  0.00    +0.000 A 
ATOM      5  C   UNL     1      21.647  40.741  47.473  0.00  0.00    +0.000 A 
ATOM      6  C   UNL     1      19.198  42.053  47.510  0.00  0.00    +0.000 A 
ATOM      7  C   UNL     1      20.473  40.042  47.194  0.00  0.00    +0.000 A 
ATOM      8  C   UNL     1      19.222  40.673  47.267  0.00  0.00    +0.000 A 
BRANCH   3   9
ATOM      9  O   UNL     1      22.665  42.738  48.407  0.00  0.00    +0.000 OA
BRANCH   9  12
ATOM     10 BR   UNL     1      24.523  43.150  50.832  0.00  0.00    +0.000 Br
ATOM     11  C   UNL     1      24.897  42.318  49.167  0.00  0.00    +0.000 A 
ATOM     12  C   UNL     1      23.912  42.178  48.181  0.00  0.00    +0.000 A 
ATOM     13  C   UNL     1      26.189  41.838  48.940  0.00  0.00    +0.000 A 
ATOM     14  C   UNL     1      24.222  41.470  47.008  0.00  0.00    +0.000 A 
ATOM     15  C   UNL     1      26.505  41.208  47.736  0.00  0.00    +0.000 A 
ATOM     16  C   UNL     1      25.518  41.013  46.775  0.00  0.00    +0.000 A 
ENDBRANCH   9  12
ENDBRANCH   3   9
ENDBRANCH   1   8
BRANCH   2  17
ATOM     17  N   UNL     1      17.191  40.313  44.953  0.00  0.00    +0.000 N 
ATOM     18  C   UNL     1      16.801  41.634  44.803  0.00  0.00    +0.000 C 
ATOM     19  O   UNL     1      16.376  42.318  45.728  0.00  0.00    +0.000 OA
ATOM     20  H   UNL     1      17.529  39.820  44.170  0.00  0.00    +0.000 HD
BRANCH  18  21
ATOM     21  C   UNL     1      16.858  42.135  43.375  0.00  0.00    +0.000 C 
BRANCH  21  22
ATOM     22  C   UNL     1      18.160  42.893  43.128  0.00  0.00    +0.000 C 
BRANCH  22  23
ATOM     23  C   UNL     1      19.377  42.056  43.415  0.00  0.00    +0.000 A 
ATOM     24  C   UNL     1      20.479  42.610  44.078  0.00  0.00    +0.000 A 
ATOM     25  C   UNL     1      19.425  40.716  43.015  0.00  0.00    +0.000 A 
ATOM     26  C   UNL     1      21.617  41.839  44.328  0.00  0.00    +0.000 A 
ATOM     27  C   UNL     1      20.562  39.945  43.267  0.00  0.00    +0.000 A 
ATOM     28  C   UNL     1      21.675  40.501  43.913  0.00  0.00    +0.000 A 
BRANCH  28  29
ATOM     29  C   UNL     1      22.915  39.670  44.130  0.00  0.00    +0.000 C 
ATOM     30  F   UNL     1      23.019  39.164  45.390  0.00  0.00    +0.000 F 
ATOM     31  F   UNL     1      22.984  38.600  43.290  0.00  0.00    +0.000 F 
ATOM     32  F   UNL     1      24.057  40.383  43.921  0.00  0.00    +0.000 F 
ENDBRANCH  28  29
ENDBRANCH  22  23
ENDBRANCH  21  22
ENDBRANCH  18  21
ENDBRANCH   2  17
BRANCH   2  33
ATOM     33  C   UNL     1      16.023  38.668  46.409  0.00  0.00    +0.000 C 
ATOM     34  O   UNL     1      15.917  37.608  45.816  0.00  0.00    +0.000 OA
ATOM     35  OXT UNL     1      15.125  39.094  47.326  0.00  0.00    +0.000 OA
ENDBRANCH   2  33
TORSDOF 9
ENDMDL
MODEL 4
REMARK VINA RESULT:      -7.2      2.356      4.448
REMARK  Name = 322226
REMARK  9 active torsions:
REMARK  status: ('A' for Active; 'I' for Inactive)
REMARK    1  A    between atoms: C_3  and  O_5
REMARK    2  A    between atoms: O_5  and  C_8
REMARK    3  A    between atoms: C_14  and  C_15
REMARK    4  A    between atoms: CA_16  and  N_17
REMARK    5  A    between atoms: CA_16  and  C_18
REMARK    6  A    between atoms: C_19  and  C_23
REMARK    7  A    between atoms: C_23  and  C_24
REMARK    8  A    between atoms: C_24  and  C_25
REMARK    9  A    between atoms: C_30  and  C_31
REMARK                            x       y       z     vdW  Elec       q    Type
REMARK                         _______ _______ _______ _____ _____    ______ ____
ROOT
ATOM      1  C   UNL     1      22.172  42.243  48.603  0.00  0.00    +0.000 C 
ATOM      2  CA  UNL     1      23.437  42.168  48.151  0.00  0.00    +0.000 C 
ENDROOT
BRANCH   1   8
ATOM      3  C   UNL     1      18.722  40.951  46.442  0.00  0.00    +0.000 A 
ATOM      4  C   UNL     1      18.700  42.217  47.004  0.00  0.00    +0.000 A 
ATOM      5  C   UNL     1      19.728  40.052  46.788  0.00  0.00    +0.000 A 
ATOM      6  C   UNL     1      19.780  42.644  47.789  0.00  0.00    +0.000 A 
ATOM      7  C   UNL     1      20.819  40.493  47.536  0.00  0.00    +0.000 A 
ATOM      8  C   UNL     1      20.891  41.815  47.998  0.00  0.00    +0.000 A 
BRANCH   3   9
ATOM      9  O   UNL     1      17.749  40.647  45.513  0.00  0.00    +0.000 OA
BRANCH   9  12
ATOM     10 BR   UNL     1      15.553  39.560  47.383  0.00  0.00    +0.000 Br
ATOM     11  C   UNL     1      16.569  38.639  46.071  0.00  0.00    +0.000 A 
ATOM     12  C   UNL     1      17.507  39.304  45.272  0.00  0.00    +0.000 A 
ATOM     13  C   UNL     1      16.359  37.266  45.911  0.00  0.00    +0.000 A 
ATOM     14  C   UNL     1      18.160  38.589  44.254  0.00  0.00    +0.000 A 
ATOM     15  C   UNL     1      17.075  36.552  44.949  0.00  0.00    +0.000 A 
ATOM     16  C   UNL     1      17.966  37.216  44.113  0.00  0.00    +0.000 A 
ENDBRANCH   9  12
ENDBRANCH   3   9
ENDBRANCH   1   8
BRANCH   2  17
ATOM     17  N   UNL     1      23.784  41.718  46.890  0.00  0.00    +0.000 N 
ATOM     18  C   UNL     1      24.097  40.389  46.654  0.00  0.00    +0.000 C 
ATOM     19  O   UNL     1      24.082  39.530  47.529  0.00  0.00    +0.000 OA
ATOM     20  H   UNL     1      23.811  42.358  46.142  0.00  0.00    +0.000 HD
BRANCH  18  21
ATOM     21  C   UNL     1      24.550  40.105  45.237  0.00  0.00    +0.000 C 
BRANCH  21  22
ATOM     22  C   UNL     1      23.498  39.284  44.496  0.00  0.00    +0.000 C 
BRANCH  22  23
ATOM     23  C   UNL     1      22.303  40.107  44.097  0.00  0.00    +0.000 A 
ATOM     24  C   UNL     1      21.295  39.552  43.297  0.00  0.00    +0.000 A 
ATOM     25  C   UNL     1      22.187  41.437  44.514  0.00  0.00    +0.000 A 
ATOM     26  C   UNL     1      20.194  40.320  42.911  0.00  0.00    +0.000 A 
ATOM     27  C   UNL     1      21.086  42.204  44.128  0.00  0.00    +0.000 A 
ATOM     28  C   UNL     1      20.084  41.659  43.312  0.00  0.00    +0.000 A 
BRANCH  28  29
ATOM     29  C   UNL     1      18.928  42.516  42.861  0.00  0.00    +0.000 C 
ATOM     30  F   UNL     1      18.242  43.091  43.889  0.00  0.00    +0.000 F 
ATOM     31  F   UNL     1      19.318  43.540  42.052  0.00  0.00    +0.000 F 
ATOM     32  F   UNL     1      18.006  41.808  42.151  0.00  0.00    +0.000 F 
ENDBRANCH  28  29
ENDBRANCH  22  23
ENDBRANCH  21  22
ENDBRANCH  18  21
ENDBRANCH   2  17
BRANCH   2  33
ATOM     33  C   UNL     1      24.506  42.717  49.051  0.00  0.00    +0.000 C 
ATOM     34  O   UNL     1      25.694  42.749  48.776  0.00  0.00    +0.000 OA
ATOM     35  OXT UNL     1      24.012  43.136  50.238  0.00  0.00    +0.000 OA
ENDBRANCH   2  33
TORSDOF 9
ENDMDL
MODEL 5
REMARK VINA RESULT:      -7.2      3.109      6.777
REMARK  Name = 322226
REMARK  9 active torsions:
REMARK  status: ('A' for Active; 'I' for Inactive)
REMARK    1  A    between atoms: C_3  and  O_5
REMARK    2  A    between atoms: O_5  and  C_8
REMARK    3  A    between atoms: C_14  and  C_15
REMARK    4  A    between atoms: CA_16  and  N_17
REMARK    5  A    between atoms: CA_16  and  C_18
REMARK    6  A    between atoms: C_19  and  C_23
REMARK    7  A    between atoms: C_23  and  C_24
REMARK    8  A    between atoms: C_24  and  C_25
REMARK    9  A    between atoms: C_30  and  C_31
REMARK                            x       y       z     vdW  Elec       q    Type
REMARK                         _______ _______ _______ _____ _____    ______ ____
ROOT
ATOM      1  C   UNL     1      19.586  41.463  43.668  0.00  0.00    +0.000 C 
ATOM      2  CA  UNL     1      18.399  40.841  43.552  0.00  0.00    +0.000 C 
ENDROOT
BRANCH   1   8
ATOM      3  C   UNL     1      22.465  40.679  46.722  0.00  0.00    +0.000 A 
ATOM      4  C   UNL     1      21.853  41.921  46.711  0.00  0.00    +0.000 A 
ATOM      5  C   UNL     1      22.328  39.823  45.632  0.00  0.00    +0.000 A 
ATOM      6  C   UNL     1      20.964  42.245  45.677  0.00  0.00    +0.000 A 
ATOM      7  C   UNL     1      21.413  40.132  44.625  0.00  0.00    +0.000 A 
ATOM      8  C   UNL     1      20.671  41.321  44.663  0.00  0.00    +0.000 A 
BRANCH   3   9
ATOM      9  O   UNL     1      23.164  40.321  47.857  0.00  0.00    +0.000 OA
BRANCH   9  12
ATOM     10 BR   UNL     1      25.809  40.582  46.295  0.00  0.00    +0.000 Br
ATOM     11  C   UNL     1      25.249  41.499  47.860  0.00  0.00    +0.000 A 
ATOM     12  C   UNL     1      23.984  41.286  48.420  0.00  0.00    +0.000 A 
ATOM     13  C   UNL     1      26.134  42.406  48.450  0.00  0.00    +0.000 A 
ATOM     14  C   UNL     1      23.589  42.062  49.522  0.00  0.00    +0.000 A 
ATOM     15  C   UNL     1      25.759  43.111  49.595  0.00  0.00    +0.000 A 
ATOM     16  C   UNL     1      24.482  42.948  50.123  0.00  0.00    +0.000 A 
ENDBRANCH   9  12
ENDBRANCH   3   9
ENDBRANCH   1   8
BRANCH   2  17
ATOM     17  N   UNL     1      17.902  39.940  44.478  0.00  0.00    +0.000 N 
ATOM     18  C   UNL     1      18.194  38.588  44.403  0.00  0.00    +0.000 C 
ATOM     19  O   UNL     1      18.905  38.101  43.531  0.00  0.00    +0.000 OA
ATOM     20  H   UNL     1      17.326  40.268  45.207  0.00  0.00    +0.000 HD
BRANCH  18  21
ATOM     21  C   UNL     1      17.480  37.745  45.440  0.00  0.00    +0.000 C 
BRANCH  21  22
ATOM     22  C   UNL     1      16.380  38.556  46.119  0.00  0.00    +0.000 C 
BRANCH  22  23
ATOM     23  C   UNL     1      16.851  39.919  46.549  0.00  0.00    +0.000 A 
ATOM     24  C   UNL     1      16.150  41.067  46.159  0.00  0.00    +0.000 A 
ATOM     25  C   UNL     1      17.999  40.056  47.336  0.00  0.00    +0.000 A 
ATOM     26  C   UNL     1      16.597  42.334  46.542  0.00  0.00    +0.000 A 
ATOM     27  C   UNL     1      18.445  41.323  47.720  0.00  0.00    +0.000 A 
ATOM     28  C   UNL     1      17.757  42.476  47.315  0.00  0.00    +0.000 A 
BRANCH  28  29
ATOM     29  C   UNL     1      18.281  43.839  47.694  0.00  0.00    +0.000 C 
ATOM     30  F   UNL     1      19.143  44.365  46.779  0.00  0.00    +0.000 F 
ATOM     31  F   UNL     1      17.290  44.759  47.847  0.00  0.00    +0.000 F 
ATOM     32  F   UNL     1      18.960  43.821  48.875  0.00  0.00    +0.000 F 
ENDBRANCH  28  29
ENDBRANCH  22  23
ENDBRANCH  21  22
ENDBRANCH  18  21
ENDBRANCH   2  17
BRANCH   2  33
ATOM     33  C   UNL     1      17.533  41.252  42.396  0.00  0.00    +0.000 C 
ATOM     34  O   UNL     1      17.819  42.124  41.592  0.00  0.00    +0.000 OA
ATOM     35  OXT UNL     1      16.363  40.575  42.366  0.00  0.00    +0.000 OA
ENDBRANCH   2  33
TORSDOF 9
ENDMDL
MODEL 6
REMARK VINA RESULT:      -7.0      2.276      4.245
REMARK  Name = 322226
REMARK  9 active torsions:
REMARK  status: ('A' for Active; 'I' for Inactive)
REMARK    1  A    between atoms: C_3  and  O_5
REMARK    2  A    between atoms: O_5  and  C_8
REMARK    3  A    between atoms: C_14  and  C_15
REMARK    4  A    between atoms: CA_16  and  N_17
REMARK    5  A    between atoms: CA_16  and  C_18
REMARK    6  A    between atoms: C_19  and  C_23
REMARK    7  A    between atoms: C_23  and  C_24
REMARK    8  A    between atoms: C_24  and  C_25
REMARK    9  A    between atoms: C_30  and  C_31
REMARK                            x       y       z     vdW  Elec       q    Type
REMARK                         _______ _______ _______ _____ _____    ______ ____
ROOT
ATOM      1  C   UNL     1      22.695  42.181  48.583  0.00  0.00    +0.000 C 
ATOM      2  CA  UNL     1      23.972  41.844  48.329  0.00  0.00    +0.000 C 
ENDROOT
BRANCH   1   8
ATOM      3  C   UNL     1      18.833  41.285  46.994  0.00  0.00    +0.000 A 
ATOM      4  C   UNL     1      19.785  40.278  46.997  0.00  0.00    +0.000 A 
ATOM      5  C   UNL     1      19.208  42.599  47.266  0.00  0.00    +0.000 A 
ATOM      6  C   UNL     1      21.086  40.557  47.434  0.00  0.00    +0.000 A 
ATOM      7  C   UNL     1      20.493  42.865  47.738  0.00  0.00    +0.000 A 
ATOM      8  C   UNL     1      21.435  41.837  47.887  0.00  0.00    +0.000 A 
BRANCH   3   9
ATOM      9  O   UNL     1      17.522  40.926  46.759  0.00  0.00    +0.000 OA
BRANCH   9  12
ATOM     10 BR   UNL     1      17.359  38.081  45.584  0.00  0.00    +0.000 Br
ATOM     11  C   UNL     1      17.006  39.744  44.741  0.00  0.00    +0.000 A 
ATOM     12  C   UNL     1      17.090  40.953  45.443  0.00  0.00    +0.000 A 
ATOM     13  C   UNL     1      16.652  39.742  43.389  0.00  0.00    +0.000 A 
ATOM     14  C   UNL     1      16.725  42.144  44.792  0.00  0.00    +0.000 A 
ATOM     15  C   UNL     1      16.371  40.941  42.733  0.00  0.00    +0.000 A 
ATOM     16  C   UNL     1      16.396  42.141  43.437  0.00  0.00    +0.000 A 
ENDBRANCH   9  12
ENDBRANCH   3   9
ENDBRANCH   1   8
BRANCH   2  17
ATOM     17  N   UNL     1      24.377  41.122  47.220  0.00  0.00    +0.000 N 
ATOM     18  C   UNL     1      24.255  39.743  47.167  0.00  0.00    +0.000 C 
ATOM     19  O   UNL     1      23.782  39.075  48.080  0.00  0.00    +0.000 OA
ATOM     20  H   UNL     1      24.762  41.600  46.450  0.00  0.00    +0.000 HD
BRANCH  18  21
ATOM     21  C   UNL     1      24.843  39.119  45.919  0.00  0.00    +0.000 C 
BRANCH  21  22
ATOM     22  C   UNL     1      23.747  38.463  45.083  0.00  0.00    +0.000 C 
BRANCH  22  23
ATOM     23  C   UNL     1      22.732  39.456  44.585  0.00  0.00    +0.000 A 
ATOM     24  C   UNL     1      21.533  39.015  44.008  0.00  0.00    +0.000 A 
ATOM     25  C   UNL     1      22.976  40.830  44.684  0.00  0.00    +0.000 A 
ATOM     26  C   UNL     1      20.598  39.936  43.528  0.00  0.00    +0.000 A 
ATOM     27  C   UNL     1      22.040  41.749  44.205  0.00  0.00    +0.000 A 
ATOM     28  C   UNL     1      20.848  41.313  43.610  0.00  0.00    +0.000 A 
BRANCH  28  29
ATOM     29  C   UNL     1      19.872  42.318  43.050  0.00  0.00    +0.000 C 
ATOM     30  F   UNL     1      18.895  41.760  42.282  0.00  0.00    +0.000 F 
ATOM     31  F   UNL     1      19.229  43.023  44.021  0.00  0.00    +0.000 F 
ATOM     32  F   UNL     1      20.483  43.244  42.258  0.00  0.00    +0.000 F 
ENDBRANCH  28  29
ENDBRANCH  22  23
ENDBRANCH  21  22
ENDBRANCH  18  21
ENDBRANCH   2  17
BRANCH   2  33
ATOM     33  C   UNL     1      25.012  42.392  49.263  0.00  0.00    +0.000 C 
ATOM     34  O   UNL     1      24.769  43.051  50.260  0.00  0.00    +0.000 OA
ATOM     35  OXT UNL     1      26.269  42.113  48.850  0.00  0.00    +0.000 OA
ENDBRANCH   2  33
TORSDOF 9
ENDMDL
MODEL 7
REMARK VINA RESULT:      -5.4      3.960      7.370
REMARK  Name = 322226
REMARK  9 active torsions:
REMARK  status: ('A' for Active; 'I' for Inactive)
REMARK    1  A    between atoms: C_3  and  O_5
REMARK    2  A    between atoms: O_5  and  C_8
REMARK    3  A    between atoms: C_14  and  C_15
REMARK    4  A    between atoms: CA_16  and  N_17
REMARK    5  A    between atoms: CA_16  and  C_18
REMARK    6  A    between atoms: C_19  and  C_23
REMARK    7  A    between atoms: C_23  and  C_24
REMARK    8  A    between atoms: C_24  and  C_25
REMARK    9  A    between atoms: C_30  and  C_31
REMARK                            x       y       z     vdW  Elec       q    Type
REMARK                         _______ _______ _______ _____ _____    ______ ____
ROOT
ATOM      1  C   UNL     1      18.435  43.529  46.365  0.00  0.00    +0.000 C 
ATOM      2  CA  UNL     1      17.336  43.386  45.602  0.00  0.00    +0.000 C 
ENDROOT
BRANCH   1   8
ATOM      3  C   UNL     1      21.947  41.226  47.138  0.00  0.00    +0.000 A 
ATOM      4  C   UNL     1      22.084  42.393  46.404  0.00  0.00    +0.000 A 
ATOM      5  C   UNL     1      20.681  40.705  47.390  0.00  0.00    +0.000 A 
ATOM      6  C   UNL     1      20.944  43.131  46.060  0.00  0.00    +0.000 A 
ATOM      7  C   UNL     1      19.550  41.462  47.081  0.00  0.00    +0.000 A 
ATOM      8  C   UNL     1      19.668  42.717  46.465  0.00  0.00    +0.000 A 
BRANCH   3   9
ATOM      9  O   UNL     1      23.096  40.644  47.632  0.00  0.00    +0.000 OA
BRANCH   9  12
ATOM     10 BR   UNL     1      25.949  40.656  46.465  0.00  0.00    +0.000 Br
ATOM     11  C   UNL     1      25.287  41.532  48.013  0.00  0.00    +0.000 A 
ATOM     12  C   UNL     1      23.938  41.452  48.380  0.00  0.00    +0.000 A 
ATOM     13  C   UNL     1      26.182  42.272  48.791  0.00  0.00    +0.000 A 
ATOM     14  C   UNL     1      23.488  42.198  49.482  0.00  0.00    +0.000 A 
ATOM     15  C   UNL     1      25.736  42.943  49.931  0.00  0.00    +0.000 A 
ATOM     16  C   UNL     1      24.387  42.915  50.269  0.00  0.00    +0.000 A 
ENDBRANCH   9  12
ENDBRANCH   3   9
ENDBRANCH   1   8
BRANCH   2  17
ATOM     17  N   UNL     1      17.108  42.308  44.765  0.00  0.00    +0.000 N 
ATOM     18  C   UNL     1      17.373  42.375  43.407  0.00  0.00    +0.000 C 
ATOM     19  O   UNL     1      17.827  43.374  42.859  0.00  0.00    +0.000 OA
ATOM     20  H   UNL     1      16.748  41.473  45.144  0.00  0.00    +0.000 HD
BRANCH  18  21
ATOM     21  C   UNL     1      16.966  41.136  42.637  0.00  0.00    +0.000 C 
BRANCH  21  22
ATOM     22  C   UNL     1      17.361  39.878  43.407  0.00  0.00    +0.000 C 
BRANCH  22  23
ATOM     23  C   UNL     1      18.850  39.755  43.584  0.00  0.00    +0.000 A 
ATOM     24  C   UNL     1      19.401  38.617  44.187  0.00  0.00    +0.000 A 
ATOM     25  C   UNL     1      19.701  40.780  43.157  0.00  0.00    +0.000 A 
ATOM     26  C   UNL     1      20.783  38.510  44.369  0.00  0.00    +0.000 A 
ATOM     27  C   UNL     1      21.082  40.672  43.338  0.00  0.00    +0.000 A 
ATOM     28  C   UNL     1      21.636  39.543  43.958  0.00  0.00    +0.000 A 
BRANCH  28  29
ATOM     29  C   UNL     1      23.124  39.466  44.194  0.00  0.00    +0.000 C 
ATOM     30  F   UNL     1      23.735  40.683  44.226  0.00  0.00    +0.000 F 
ATOM     31  F   UNL     1      23.439  38.858  45.371  0.00  0.00    +0.000 F 
ATOM     32  F   UNL     1      23.765  38.755  43.223  0.00  0.00    +0.000 F 
ENDBRANCH  28  29
ENDBRANCH  22  23
ENDBRANCH  21  22
ENDBRANCH  18  21
ENDBRANCH   2  17
BRANCH   2  33
ATOM     33  C   UNL     1      16.260  44.419  45.773  0.00  0.00    +0.000 C 
ATOM     34  O   UNL     1      15.686  44.979  44.854  0.00  0.00    +0.000 OA
ATOM     35  OXT UNL     1      16.023  44.702  47.074  0.00  0.00    +0.000 OA
ENDBRANCH   2  33
TORSDOF 9
ENDMDL
