MODEL 1
REMARK VINA RESULT:      -7.2      0.000      0.000
REMARK  Name = 319818
REMARK  6 active torsions:
REMARK  status: ('A' for Active; 'I' for Inactive)
REMARK    1  A    between atoms: C_3  and  O_5
REMARK    2  A    between atoms: O_5  and  C_8
REMARK    3  A    between atoms: C_15  and  C_16
REMARK    4  A    between atoms: CA_17  and  N_18
REMARK    5  A    between atoms: CA_17  and  C_19
REMARK    6  A    between atoms: C_20  and  C_24
REMARK                            x       y       z     vdW  Elec       q    Type
REMARK                         _______ _______ _______ _____ _____    ______ ____
ROOT
ATOM      1  C   UNL     1      22.019  41.668  47.571  0.00  0.00    +0.000 A 
ATOM      2  C   UNL     1      20.801  41.931  48.197  0.00  0.00    +0.000 A 
ATOM      3  C   UNL     1      22.253  42.165  46.286  0.00  0.00    +0.000 A 
ATOM      4  C   UNL     1      19.766  42.539  47.480  0.00  0.00    +0.000 A 
ATOM      5  C   UNL     1      21.229  42.803  45.579  0.00  0.00    +0.000 A 
ATOM      6  C   UNL     1      19.963  42.942  46.156  0.00  0.00    +0.000 A 
ENDROOT
BRANCH   6   7
ATOM      7  C   UNL     1      18.821  43.329  45.321  0.00  0.00    +0.000 C 
ATOM      8  CA  UNL     1      17.900  42.557  44.717  0.00  0.00    +0.000 C 
BRANCH   8   9
ATOM      9  N   UNL     1      17.897  41.169  44.665  0.00  0.00    +0.000 N 
ATOM     10  C   UNL     1      17.198  40.404  45.587  0.00  0.00    +0.000 C 
ATOM     11  O   UNL     1      16.656  40.881  46.579  0.00  0.00    +0.000 OA
ATOM     12  H   UNL     1      18.404  40.715  43.954  0.00  0.00    +0.000 HD
BRANCH  10  13
ATOM     13  C   UNL     1      17.230  38.930  45.414  0.00  0.00    +0.000 A 
ATOM     14  C   UNL     1      16.388  38.159  46.228  0.00  0.00    +0.000 A 
ATOM     15  C   UNL     1      18.002  38.305  44.429  0.00  0.00    +0.000 A 
ATOM     16  C   UNL     1      16.301  36.778  46.049  0.00  0.00    +0.000 A 
ATOM     17  C   UNL     1      17.908  36.917  44.246  0.00  0.00    +0.000 A 
ATOM     18  C   UNL     1      17.056  36.162  45.053  0.00  0.00    +0.000 A 
ENDBRANCH  10  13
ENDBRANCH   8   9
BRANCH   8  19
ATOM     19  C   UNL     1      16.778  43.294  44.050  0.00  0.00    +0.000 C 
ATOM     20  O   UNL     1      16.321  44.366  44.409  0.00  0.00    +0.000 OA
ATOM     21  OXT UNL     1      16.322  42.612  42.973  0.00  0.00    +0.000 OA
ENDBRANCH   8  19
ENDBRANCH   6   7
BRANCH   1  22
ATOM     22  O   UNL     1      23.055  40.970  48.144  0.00  0.00    +0.000 OA
BRANCH  22  25
ATOM     23 BR   UNL     1      25.386  40.197  46.341  0.00  0.00    +0.000 Br
ATOM     24  C   UNL     1      25.375  41.361  47.844  0.00  0.00    +0.000 A 
ATOM     25  C   UNL     1      24.199  41.618  48.562  0.00  0.00    +0.000 A 
ATOM     26  C   UNL     1      26.591  41.948  48.220  0.00  0.00    +0.000 A 
ATOM     27  C   UNL     1      24.289  42.430  49.699  0.00  0.00    +0.000 A 
ATOM     28  C   UNL     1      26.646  42.800  49.320  0.00  0.00    +0.000 A 
ATOM     29  F   UNL     1      23.227  42.647  50.489  0.00  0.00    +0.000 F 
ATOM     30  C   UNL     1      25.492  43.039  50.062  0.00  0.00    +0.000 A 
ENDBRANCH  22  25
ENDBRANCH   1  22
TORSDOF 6
ENDMDL
MODEL 2
REMARK VINA RESULT:      -7.1      1.327      1.792
REMARK  Name = 319818
REMARK  6 active torsions:
REMARK  status: ('A' for Active; 'I' for Inactive)
REMARK    1  A    between atoms: C_3  and  O_5
REMARK    2  A    between atoms: O_5  and  C_8
REMARK    3  A    between atoms: C_15  and  C_16
REMARK    4  A    between atoms: CA_17  and  N_18
REMARK    5  A    between atoms: CA_17  and  C_19
REMARK    6  A    between atoms: C_20  and  C_24
REMARK                            x       y       z     vdW  Elec       q    Type
REMARK                         _______ _______ _______ _____ _____    ______ ____
ROOT
ATOM      1  C   UNL     1      22.358  41.456  46.806  0.00  0.00    +0.000 A 
ATOM      2  C   UNL     1      21.769  42.718  46.743  0.00  0.00    +0.000 A 
ATOM      3  C   UNL     1      22.366  40.642  45.670  0.00  0.00    +0.000 A 
ATOM      4  C   UNL     1      21.047  43.093  45.605  0.00  0.00    +0.000 A 
ATOM      5  C   UNL     1      21.671  41.030  44.520  0.00  0.00    +0.000 A 
ATOM      6  C   UNL     1      20.962  42.235  44.505  0.00  0.00    +0.000 A 
ENDROOT
BRANCH   6   7
ATOM      7  C   UNL     1      19.999  42.499  43.431  0.00  0.00    +0.000 C 
ATOM      8  CA  UNL     1      18.912  41.796  43.062  0.00  0.00    +0.000 C 
BRANCH   8   9
ATOM      9  N   UNL     1      18.518  40.565  43.569  0.00  0.00    +0.000 N 
ATOM     10  C   UNL     1      17.579  40.459  44.584  0.00  0.00    +0.000 C 
ATOM     11  O   UNL     1      17.139  41.429  45.193  0.00  0.00    +0.000 OA
ATOM     12  H   UNL     1      18.916  39.744  43.198  0.00  0.00    +0.000 HD
BRANCH  10  13
ATOM     13  C   UNL     1      17.201  39.092  45.023  0.00  0.00    +0.000 A 
ATOM     14  C   UNL     1      17.734  38.007  44.311  0.00  0.00    +0.000 A 
ATOM     15  C   UNL     1      16.408  38.856  46.150  0.00  0.00    +0.000 A 
ATOM     16  C   UNL     1      17.495  36.699  44.731  0.00  0.00    +0.000 A 
ATOM     17  C   UNL     1      16.174  37.540  46.575  0.00  0.00    +0.000 A 
ATOM     18  C   UNL     1      16.721  36.469  45.868  0.00  0.00    +0.000 A 
ENDBRANCH  10  13
ENDBRANCH   8   9
BRANCH   8  19
ATOM     19  C   UNL     1      18.063  42.431  42.003  0.00  0.00    +0.000 C 
ATOM     20  O   UNL     1      17.132  41.896  41.424  0.00  0.00    +0.000 OA
ATOM     21  OXT UNL     1      18.459  43.702  41.760  0.00  0.00    +0.000 OA
ENDBRANCH   8  19
ENDBRANCH   6   7
BRANCH   1  22
ATOM     22  O   UNL     1      22.985  40.943  47.917  0.00  0.00    +0.000 OA
BRANCH  22  25
ATOM     23 BR   UNL     1      25.679  40.302  46.648  0.00  0.00    +0.000 Br
ATOM     24  C   UNL     1      25.292  41.460  48.104  0.00  0.00    +0.000 A 
ATOM     25  C   UNL     1      23.980  41.651  48.558  0.00  0.00    +0.000 A 
ATOM     26  C   UNL     1      26.370  42.112  48.719  0.00  0.00    +0.000 A 
ATOM     27  C   UNL     1      23.787  42.466  49.681  0.00  0.00    +0.000 A 
ATOM     28  C   UNL     1      26.148  42.964  49.799  0.00  0.00    +0.000 A 
ATOM     29  F   UNL     1      22.574  42.623  50.230  0.00  0.00    +0.000 F 
ATOM     30  C   UNL     1      24.854  43.139  50.281  0.00  0.00    +0.000 A 
ENDBRANCH  22  25
ENDBRANCH   1  22
TORSDOF 6
ENDMDL
MODEL 3
REMARK VINA RESULT:      -6.4      1.436      1.723
REMARK  Name = 319818
REMARK  6 active torsions:
REMARK  status: ('A' for Active; 'I' for Inactive)
REMARK    1  A    between atoms: C_3  and  O_5
REMARK    2  A    between atoms: O_5  and  C_8
REMARK    3  A    between atoms: C_15  and  C_16
REMARK    4  A    between atoms: CA_17  and  N_18
REMARK    5  A    between atoms: CA_17  and  C_19
REMARK    6  A    between atoms: C_20  and  C_24
REMARK                            x       y       z     vdW  Elec       q    Type
REMARK                         _______ _______ _______ _____ _____    ______ ____
ROOT
ATOM      1  C   UNL     1      21.871  41.770  47.892  0.00  0.00    +0.000 A 
ATOM      2  C   UNL     1      20.642  42.115  48.453  0.00  0.00    +0.000 A 
ATOM      3  C   UNL     1      22.169  42.173  46.587  0.00  0.00    +0.000 A 
ATOM      4  C   UNL     1      19.656  42.709  47.659  0.00  0.00    +0.000 A 
ATOM      5  C   UNL     1      21.194  42.795  45.802  0.00  0.00    +0.000 A 
ATOM      6  C   UNL     1      19.914  43.016  46.320  0.00  0.00    +0.000 A 
ENDROOT
BRANCH   6   7
ATOM      7  C   UNL     1      18.817  43.384  45.419  0.00  0.00    +0.000 C 
ATOM      8  CA  UNL     1      17.936  42.597  44.774  0.00  0.00    +0.000 C 
BRANCH   8   9
ATOM      9  N   UNL     1      17.946  41.209  44.738  0.00  0.00    +0.000 N 
ATOM     10  C   UNL     1      17.187  40.449  45.615  0.00  0.00    +0.000 C 
ATOM     11  O   UNL     1      16.571  40.933  46.560  0.00  0.00    +0.000 OA
ATOM     12  H   UNL     1      18.507  40.752  44.071  0.00  0.00    +0.000 HD
BRANCH  10  13
ATOM     13  C   UNL     1      17.242  38.973  45.462  0.00  0.00    +0.000 A 
ATOM     14  C   UNL     1      16.416  38.201  46.291  0.00  0.00    +0.000 A 
ATOM     15  C   UNL     1      18.019  38.347  44.482  0.00  0.00    +0.000 A 
ATOM     16  C   UNL     1      16.350  36.816  46.131  0.00  0.00    +0.000 A 
ATOM     17  C   UNL     1      17.946  36.956  44.319  0.00  0.00    +0.000 A 
ATOM     18  C   UNL     1      17.110  36.198  45.139  0.00  0.00    +0.000 A 
ENDBRANCH  10  13
ENDBRANCH   8   9
BRANCH   8  19
ATOM     19  C   UNL     1      16.847  43.318  44.038  0.00  0.00    +0.000 C 
ATOM     20  O   UNL     1      16.358  44.386  44.363  0.00  0.00    +0.000 OA
ATOM     21  OXT UNL     1      16.463  42.626  42.940  0.00  0.00    +0.000 OA
ENDBRANCH   8  19
ENDBRANCH   6   7
BRANCH   1  22
ATOM     22  O   UNL     1      22.861  41.078  48.548  0.00  0.00    +0.000 OA
BRANCH  22  25
ATOM     23 BR   UNL     1      24.117  43.053  50.498  0.00  0.00    +0.000 Br
ATOM     24  C   UNL     1      24.917  42.162  49.021  0.00  0.00    +0.000 A 
ATOM     25  C   UNL     1      24.188  41.266  48.226  0.00  0.00    +0.000 A 
ATOM     26  C   UNL     1      26.262  42.441  48.746  0.00  0.00    +0.000 A 
ATOM     27  C   UNL     1      24.830  40.705  47.115  0.00  0.00    +0.000 A 
ATOM     28  C   UNL     1      26.898  41.827  47.669  0.00  0.00    +0.000 A 
ATOM     29  F   UNL     1      24.174  39.913  46.255  0.00  0.00    +0.000 F 
ATOM     30  C   UNL     1      26.178  40.959  46.851  0.00  0.00    +0.000 A 
ENDBRANCH  22  25
ENDBRANCH   1  22
TORSDOF 6
ENDMDL
MODEL 4
REMARK VINA RESULT:      -6.2      3.524      8.174
REMARK  Name = 319818
REMARK  6 active torsions:
REMARK  status: ('A' for Active; 'I' for Inactive)
REMARK    1  A    between atoms: C_3  and  O_5
REMARK    2  A    between atoms: O_5  and  C_8
REMARK    3  A    between atoms: C_15  and  C_16
REMARK    4  A    between atoms: CA_17  and  N_18
REMARK    5  A    between atoms: CA_17  and  C_19
REMARK    6  A    between atoms: C_20  and  C_24
REMARK                            x       y       z     vdW  Elec       q    Type
REMARK                         _______ _______ _______ _____ _____    ______ ____
ROOT
ATOM      1  C   UNL     1      20.246  41.679  44.002  0.00  0.00    +0.000 A 
ATOM      2  C   UNL     1      20.198  40.463  43.321  0.00  0.00    +0.000 A 
ATOM      3  C   UNL     1      21.396  42.021  44.718  0.00  0.00    +0.000 A 
ATOM      4  C   UNL     1      21.223  39.527  43.493  0.00  0.00    +0.000 A 
ATOM      5  C   UNL     1      22.436  41.099  44.865  0.00  0.00    +0.000 A 
ATOM      6  C   UNL     1      22.327  39.825  44.297  0.00  0.00    +0.000 A 
ENDROOT
BRANCH   6   7
ATOM      7  C   UNL     1      23.262  38.768  44.696  0.00  0.00    +0.000 C 
ATOM      8  CA  UNL     1      23.945  38.617  45.845  0.00  0.00    +0.000 C 
BRANCH   8   9
ATOM      9  N   UNL     1      23.997  39.523  46.896  0.00  0.00    +0.000 N 
ATOM     10  C   UNL     1      24.912  40.565  46.919  0.00  0.00    +0.000 C 
ATOM     11  O   UNL     1      25.818  40.678  46.100  0.00  0.00    +0.000 OA
ATOM     12  H   UNL     1      23.366  39.424  47.645  0.00  0.00    +0.000 HD
BRANCH  10  13
ATOM     13  C   UNL     1      24.852  41.499  48.072  0.00  0.00    +0.000 A 
ATOM     14  C   UNL     1      23.602  41.726  48.663  0.00  0.00    +0.000 A 
ATOM     15  C   UNL     1      25.995  42.088  48.623  0.00  0.00    +0.000 A 
ATOM     16  C   UNL     1      23.493  42.518  49.807  0.00  0.00    +0.000 A 
ATOM     17  C   UNL     1      25.885  42.878  49.777  0.00  0.00    +0.000 A 
ATOM     18  C   UNL     1      24.637  43.085  50.366  0.00  0.00    +0.000 A 
ENDBRANCH  10  13
ENDBRANCH   8   9
BRANCH   8  19
ATOM     19  C   UNL     1      24.711  37.335  45.976  0.00  0.00    +0.000 C 
ATOM     20  O   UNL     1      25.762  37.076  45.415  0.00  0.00    +0.000 OA
ATOM     21  OXT UNL     1      24.082  36.478  46.813  0.00  0.00    +0.000 OA
ENDBRANCH   8  19
ENDBRANCH   6   7
BRANCH   1  22
ATOM     22  O   UNL     1      19.239  42.614  43.999  0.00  0.00    +0.000 OA
BRANCH  22  25
ATOM     23 BR   UNL     1      16.727  40.911  43.733  0.00  0.00    +0.000 Br
ATOM     24  C   UNL     1      17.226  42.090  45.139  0.00  0.00    +0.000 A 
ATOM     25  C   UNL     1      18.437  42.795  45.106  0.00  0.00    +0.000 A 
ATOM     26  C   UNL     1      16.333  42.239  46.208  0.00  0.00    +0.000 A 
ATOM     27  C   UNL     1      18.698  43.696  46.146  0.00  0.00    +0.000 A 
ATOM     28  C   UNL     1      16.640  43.098  47.261  0.00  0.00    +0.000 A 
ATOM     29  F   UNL     1      19.790  44.474  46.137  0.00  0.00    +0.000 F 
ATOM     30  C   UNL     1      17.824  43.829  47.227  0.00  0.00    +0.000 A 
ENDBRANCH  22  25
ENDBRANCH   1  22
TORSDOF 6
ENDMDL
MODEL 5
REMARK VINA RESULT:      -6.1      1.993      2.336
REMARK  Name = 319818
REMARK  6 active torsions:
REMARK  status: ('A' for Active; 'I' for Inactive)
REMARK    1  A    between atoms: C_3  and  O_5
REMARK    2  A    between atoms: O_5  and  C_8
REMARK    3  A    between atoms: C_15  and  C_16
REMARK    4  A    between atoms: CA_17  and  N_18
REMARK    5  A    between atoms: CA_17  and  C_19
REMARK    6  A    between atoms: C_20  and  C_24
REMARK                            x       y       z     vdW  Elec       q    Type
REMARK                         _______ _______ _______ _____ _____    ______ ____
ROOT
ATOM      1  C   UNL     1      21.857  41.867  47.544  0.00  0.00    +0.000 A 
ATOM      2  C   UNL     1      20.592  41.303  47.383  0.00  0.00    +0.000 A 
ATOM      3  C   UNL     1      22.280  42.869  46.667  0.00  0.00    +0.000 A 
ATOM      4  C   UNL     1      19.827  41.619  46.256  0.00  0.00    +0.000 A 
ATOM      5  C   UNL     1      21.501  43.209  45.556  0.00  0.00    +0.000 A 
ATOM      6  C   UNL     1      20.295  42.543  45.318  0.00  0.00    +0.000 A 
ENDROOT
BRANCH   6   7
ATOM      7  C   UNL     1      19.634  42.678  44.015  0.00  0.00    +0.000 C 
ATOM      8  CA  UNL     1      18.609  41.977  43.497  0.00  0.00    +0.000 C 
BRANCH   8   9
ATOM      9  N   UNL     1      18.005  40.863  44.065  0.00  0.00    +0.000 N 
ATOM     10  C   UNL     1      18.597  39.610  44.025  0.00  0.00    +0.000 C 
ATOM     11  O   UNL     1      19.611  39.369  43.376  0.00  0.00    +0.000 OA
ATOM     12  H   UNL     1      17.132  40.966  44.509  0.00  0.00    +0.000 HD
BRANCH  10  13
ATOM     13  C   UNL     1      17.883  38.496  44.699  0.00  0.00    +0.000 A 
ATOM     14  C   UNL     1      17.063  38.814  45.791  0.00  0.00    +0.000 A 
ATOM     15  C   UNL     1      17.942  37.177  44.239  0.00  0.00    +0.000 A 
ATOM     16  C   UNL     1      16.292  37.828  46.407  0.00  0.00    +0.000 A 
ATOM     17  C   UNL     1      17.160  36.188  44.855  0.00  0.00    +0.000 A 
ATOM     18  C   UNL     1      16.337  36.518  45.932  0.00  0.00    +0.000 A 
ENDBRANCH  10  13
ENDBRANCH   8   9
BRANCH   8  19
ATOM     19  C   UNL     1      18.086  42.475  42.184  0.00  0.00    +0.000 C 
ATOM     20  O   UNL     1      17.255  41.912  41.492  0.00  0.00    +0.000 OA
ATOM     21  OXT UNL     1      18.659  43.655  41.849  0.00  0.00    +0.000 OA
ENDBRANCH   8  19
ENDBRANCH   6   7
BRANCH   1  22
ATOM     22  O   UNL     1      22.737  41.535  48.547  0.00  0.00    +0.000 OA
BRANCH  22  25
ATOM     23 BR   UNL     1      24.266  43.228  50.566  0.00  0.00    +0.000 Br
ATOM     24  C   UNL     1      24.943  42.177  49.134  0.00  0.00    +0.000 A 
ATOM     25  C   UNL     1      24.090  41.443  48.299  0.00  0.00    +0.000 A 
ATOM     26  C   UNL     1      26.330  42.170  48.933  0.00  0.00    +0.000 A 
ATOM     27  C   UNL     1      24.662  40.751  47.223  0.00  0.00    +0.000 A 
ATOM     28  C   UNL     1      26.883  41.428  47.892  0.00  0.00    +0.000 A 
ATOM     29  F   UNL     1      23.904  40.103  46.328  0.00  0.00    +0.000 F 
ATOM     30  C   UNL     1      26.046  40.719  47.035  0.00  0.00    +0.000 A 
ENDBRANCH  22  25
ENDBRANCH   1  22
TORSDOF 6
ENDMDL
MODEL 6
REMARK VINA RESULT:      -5.5      2.467      4.392
REMARK  Name = 319818
REMARK  6 active torsions:
REMARK  status: ('A' for Active; 'I' for Inactive)
REMARK    1  A    between atoms: C_3  and  O_5
REMARK    2  A    between atoms: O_5  and  C_8
REMARK    3  A    between atoms: C_15  and  C_16
REMARK    4  A    between atoms: CA_17  and  N_18
REMARK    5  A    between atoms: CA_17  and  C_19
REMARK    6  A    between atoms: C_20  and  C_24
REMARK                            x       y       z     vdW  Elec       q    Type
REMARK                         _______ _______ _______ _____ _____    ______ ____
ROOT
ATOM      1  C   UNL     1      24.068  40.453  45.510  0.00  0.00    +0.000 A 
ATOM      2  C   UNL     1      23.005  41.352  45.424  0.00  0.00    +0.000 A 
ATOM      3  C   UNL     1      23.975  39.214  44.871  0.00  0.00    +0.000 A 
ATOM      4  C   UNL     1      21.797  40.948  44.848  0.00  0.00    +0.000 A 
ATOM      5  C   UNL     1      22.777  38.821  44.266  0.00  0.00    +0.000 A 
ATOM      6  C   UNL     1      21.665  39.668  44.301  0.00  0.00    +0.000 A 
ENDROOT
BRANCH   6   7
ATOM      7  C   UNL     1      20.342  39.147  43.943  0.00  0.00    +0.000 C 
ATOM      8  CA  UNL     1      19.126  39.519  44.383  0.00  0.00    +0.000 C 
BRANCH   8   9
ATOM      9  N   UNL     1      18.862  40.438  45.391  0.00  0.00    +0.000 N 
ATOM     10  C   UNL     1      18.429  41.725  45.111  0.00  0.00    +0.000 C 
ATOM     11  O   UNL     1      18.383  42.184  43.974  0.00  0.00    +0.000 OA
ATOM     12  H   UNL     1      18.985  40.168  46.329  0.00  0.00    +0.000 HD
BRANCH  10  13
ATOM     13  C   UNL     1      18.138  42.612  46.265  0.00  0.00    +0.000 A 
ATOM     14  C   UNL     1      19.107  42.711  47.274  0.00  0.00    +0.000 A 
ATOM     15  C   UNL     1      16.982  43.397  46.338  0.00  0.00    +0.000 A 
ATOM     16  C   UNL     1      18.936  43.599  48.336  0.00  0.00    +0.000 A 
ATOM     17  C   UNL     1      16.815  44.295  47.404  0.00  0.00    +0.000 A 
ATOM     18  C   UNL     1      17.793  44.395  48.393  0.00  0.00    +0.000 A 
ENDBRANCH  10  13
ENDBRANCH   8   9
BRANCH   8  19
ATOM     19  C   UNL     1      17.964  38.866  43.697  0.00  0.00    +0.000 C 
ATOM     20  O   UNL     1      17.110  39.442  43.045  0.00  0.00    +0.000 OA
ATOM     21  OXT UNL     1      17.978  37.526  43.889  0.00  0.00    +0.000 OA
ENDBRANCH   8  19
ENDBRANCH   6   7
BRANCH   1  22
ATOM     22  O   UNL     1      25.252  40.707  46.161  0.00  0.00    +0.000 OA
BRANCH  22  25
ATOM     23 BR   UNL     1      23.402  39.343  48.160  0.00  0.00    +0.000 Br
ATOM     24  C   UNL     1      24.456  40.908  48.386  0.00  0.00    +0.000 A 
ATOM     25  C   UNL     1      25.270  41.397  47.354  0.00  0.00    +0.000 A 
ATOM     26  C   UNL     1      24.385  41.567  49.621  0.00  0.00    +0.000 A 
ATOM     27  C   UNL     1      25.961  42.595  47.576  0.00  0.00    +0.000 A 
ATOM     28  C   UNL     1      25.126  42.725  49.840  0.00  0.00    +0.000 A 
ATOM     29  F   UNL     1      26.684  43.174  46.607  0.00  0.00    +0.000 F 
ATOM     30  C   UNL     1      25.914  43.241  48.814  0.00  0.00    +0.000 A 
ENDBRANCH  22  25
ENDBRANCH   1  22
TORSDOF 6
ENDMDL
MODEL 7
REMARK VINA RESULT:      -4.2      3.629      8.671
REMARK  Name = 319818
REMARK  6 active torsions:
REMARK  status: ('A' for Active; 'I' for Inactive)
REMARK    1  A    between atoms: C_3  and  O_5
REMARK    2  A    between atoms: O_5  and  C_8
REMARK    3  A    between atoms: C_15  and  C_16
REMARK    4  A    between atoms: CA_17  and  N_18
REMARK    5  A    between atoms: CA_17  and  C_19
REMARK    6  A    between atoms: C_20  and  C_24
REMARK                            x       y       z     vdW  Elec       q    Type
REMARK                         _______ _______ _______ _____ _____    ______ ____
ROOT
ATOM      1  C   UNL     1      19.269  40.693  44.339  0.00  0.00    +0.000 A 
ATOM      2  C   UNL     1      19.899  40.173  43.209  0.00  0.00    +0.000 A 
ATOM      3  C   UNL     1      20.016  40.927  45.497  0.00  0.00    +0.000 A 
ATOM      4  C   UNL     1      21.225  39.735  43.290  0.00  0.00    +0.000 A 
ATOM      5  C   UNL     1      21.351  40.519  45.569  0.00  0.00    +0.000 A 
ATOM      6  C   UNL     1      21.944  39.870  44.481  0.00  0.00    +0.000 A 
ENDROOT
BRANCH   6   7
ATOM      7  C   UNL     1      23.226  39.179  44.656  0.00  0.00    +0.000 C 
ATOM      8  CA  UNL     1      24.084  39.214  45.692  0.00  0.00    +0.000 C 
BRANCH   8   9
ATOM      9  N   UNL     1      23.987  40.028  46.813  0.00  0.00    +0.000 N 
ATOM     10  C   UNL     1      24.920  41.018  47.081  0.00  0.00    +0.000 C 
ATOM     11  O   UNL     1      25.957  41.153  46.437  0.00  0.00    +0.000 OA
ATOM     12  H   UNL     1      23.234  39.899  47.434  0.00  0.00    +0.000 HD
BRANCH  10  13
ATOM     13  C   UNL     1      24.697  41.857  48.285  0.00  0.00    +0.000 A 
ATOM     14  C   UNL     1      23.382  41.992  48.752  0.00  0.00    +0.000 A 
ATOM     15  C   UNL     1      25.748  42.442  48.999  0.00  0.00    +0.000 A 
ATOM     16  C   UNL     1      23.117  42.687  49.931  0.00  0.00    +0.000 A 
ATOM     17  C   UNL     1      25.481  43.135  50.190  0.00  0.00    +0.000 A 
ATOM     18  C   UNL     1      24.170  43.250  50.652  0.00  0.00    +0.000 A 
ENDBRANCH  10  13
ENDBRANCH   8   9
BRANCH   8  19
ATOM     19  C   UNL     1      25.243  38.268  45.600  0.00  0.00    +0.000 C 
ATOM     20  O   UNL     1      26.382  38.570  45.287  0.00  0.00    +0.000 OA
ATOM     21  OXT UNL     1      24.867  37.007  45.917  0.00  0.00    +0.000 OA
ENDBRANCH   8  19
ENDBRANCH   6   7
BRANCH   1  22
ATOM     22  O   UNL     1      17.940  41.039  44.401  0.00  0.00    +0.000 OA
BRANCH  22  25
ATOM     23 BR   UNL     1      17.045  42.838  46.691  0.00  0.00    +0.000 Br
ATOM     24  C   UNL     1      16.567  41.033  46.334  0.00  0.00    +0.000 A 
ATOM     25  C   UNL     1      17.067  40.351  45.216  0.00  0.00    +0.000 A 
ATOM     26  C   UNL     1      15.701  40.401  47.237  0.00  0.00    +0.000 A 
ATOM     27  C   UNL     1      16.722  39.002  45.063  0.00  0.00    +0.000 A 
ATOM     28  C   UNL     1      15.325  39.075  47.033  0.00  0.00    +0.000 A 
ATOM     29  F   UNL     1      17.234  38.258  44.072  0.00  0.00    +0.000 F 
ATOM     30  C   UNL     1      15.838  38.375  45.945  0.00  0.00    +0.000 A 
ENDBRANCH  22  25
ENDBRANCH   1  22
TORSDOF 6
ENDMDL
