MODEL 1
REMARK VINA RESULT:       0.4      0.000      0.000
REMARK  Name = 324498
REMARK  8 active torsions:
REMARK  status: ('A' for Active; 'I' for Inactive)
REMARK    1  A    between atoms: C_3  and  O_5
REMARK    2  A    between atoms: O_5  and  C_8
REMARK    3  A    between atoms: C_14  and  C_15
REMARK    4  A    between atoms: C_16  and  N_17
REMARK    5  A    between atoms: C_16  and  C_18
REMARK    6  A    between atoms: C_19  and  C_23
REMARK    7  A    between atoms: N_21  and  C_24
REMARK    8  A    between atoms: C_31  and  O_34
REMARK                            x       y       z     vdW  Elec       q    Type
REMARK                         _______ _______ _______ _____ _____    ______ ____
ROOT
ATOM      1  C   UNL     1      20.733  40.208  43.684  0.00  0.00    +0.000 C 
ATOM      2  C   UNL     1      19.588  40.895  43.868  0.00  0.00    +0.000 C 
ENDROOT
BRANCH   1   8
ATOM      3  C   UNL     1      23.971  40.190  46.419  0.00  0.00    +0.000 A 
ATOM      4  C   UNL     1      23.419  41.408  46.003  0.00  0.00    +0.000 A 
ATOM      5  C   UNL     1      23.645  39.018  45.732  0.00  0.00    +0.000 A 
ATOM      6  C   UNL     1      22.436  41.427  45.006  0.00  0.00    +0.000 A 
ATOM      7  C   UNL     1      22.647  39.035  44.750  0.00  0.00    +0.000 A 
ATOM      8  C   UNL     1      22.004  40.233  44.417  0.00  0.00    +0.000 A 
BRANCH   3   9
ATOM      9  O   UNL     1      24.812  40.215  47.511  0.00  0.00    +0.000 OA
BRANCH   9  12
ATOM     10 BR   UNL     1      27.547  41.436  48.281  0.00  0.00    +0.000 Br
ATOM     11  C   UNL     1      25.815  41.884  48.913  0.00  0.00    +0.000 A 
ATOM     12  C   UNL     1      24.666  41.243  48.430  0.00  0.00    +0.000 A 
ATOM     13  C   UNL     1      25.712  42.890  49.882  0.00  0.00    +0.000 A 
ATOM     14  C   UNL     1      23.410  41.694  48.866  0.00  0.00    +0.000 A 
ATOM     15  C   UNL     1      24.459  43.280  50.359  0.00  0.00    +0.000 A 
ATOM     16  C   UNL     1      23.309  42.691  49.840  0.00  0.00    +0.000 A 
ENDBRANCH   9  12
ENDBRANCH   3   9
ENDBRANCH   1   8
BRANCH   2  17
ATOM     17  N   UNL     1      19.358  41.723  44.953  0.00  0.00    +0.000 N 
ATOM     18  C   UNL     1      18.365  41.400  45.864  0.00  0.00    +0.000 C 
ATOM     19  O   UNL     1      17.734  40.348  45.846  0.00  0.00    +0.000 OA
ATOM     20  H   UNL     1      19.897  42.537  45.077  0.00  0.00    +0.000 HD
BRANCH  18  21
ATOM     21  C   UNL     1      18.081  42.402  46.923  0.00  0.00    +0.000 A 
ATOM     22  C   UNL     1      19.009  42.568  47.958  0.00  0.00    +0.000 A 
ATOM     23  C   UNL     1      16.991  43.274  46.813  0.00  0.00    +0.000 A 
ATOM     24  C   UNL     1      18.870  43.625  48.860  0.00  0.00    +0.000 A 
ATOM     25  C   UNL     1      16.866  44.339  47.710  0.00  0.00    +0.000 A 
ATOM     26  C   UNL     1      17.808  44.520  48.724  0.00  0.00    +0.000 A 
ENDBRANCH  18  21
ENDBRANCH   2  17
BRANCH   2  27
ATOM     27  C   UNL     1      18.494  40.617  42.832  0.00  0.00    +0.000 C 
ATOM     28  O   UNL     1      18.028  39.480  42.744  0.00  0.00    +0.000 OA
ATOM     29  N   UNL     1      18.113  41.688  42.055  0.00  0.00    +0.000 N 
ATOM     30  H   UNL     1      18.592  42.536  42.198  0.00  0.00    +0.000 HD
BRANCH  29  31
ATOM     31  C   UNL     1      17.094  41.683  41.062  0.00  0.00    +0.000 A 
ATOM     32  C   UNL     1      15.765  41.306  41.314  0.00  0.00    +0.000 A 
ATOM     33  C   UNL     1      17.432  42.091  39.765  0.00  0.00    +0.000 A 
ATOM     34  C   UNL     1      14.821  41.309  40.278  0.00  0.00    +0.000 A 
ATOM     35  C   UNL     1      16.478  42.073  38.732  0.00  0.00    +0.000 A 
ATOM     36  C   UNL     1      15.170  41.682  38.987  0.00  0.00    +0.000 A 
BRANCH  34  37
ATOM     37  O   UNL     1      13.523  40.952  40.504  0.00  0.00    +0.000 OA
ATOM     38  H   UNL     1      12.836  41.337  39.998  0.00  0.00    +0.000 HD
ENDBRANCH  34  37
ENDBRANCH  29  31
ENDBRANCH   2  27
TORSDOF 8
ENDMDL
MODEL 2
REMARK VINA RESULT:       1.2      3.118      4.055
REMARK  Name = 324498
REMARK  8 active torsions:
REMARK  status: ('A' for Active; 'I' for Inactive)
REMARK    1  A    between atoms: C_3  and  O_5
REMARK    2  A    between atoms: O_5  and  C_8
REMARK    3  A    between atoms: C_14  and  C_15
REMARK    4  A    between atoms: C_16  and  N_17
REMARK    5  A    between atoms: C_16  and  C_18
REMARK    6  A    between atoms: C_19  and  C_23
REMARK    7  A    between atoms: N_21  and  C_24
REMARK    8  A    between atoms: C_31  and  O_34
REMARK                            x       y       z     vdW  Elec       q    Type
REMARK                         _______ _______ _______ _____ _____    ______ ____
ROOT
ATOM      1  C   UNL     1      20.613  39.236  44.490  0.00  0.00    +0.000 C 
ATOM      2  C   UNL     1      19.321  39.597  44.616  0.00  0.00    +0.000 C 
ENDROOT
BRANCH   1   8
ATOM      3  C   UNL     1      24.243  41.006  45.779  0.00  0.00    +0.000 A 
ATOM      4  C   UNL     1      23.023  41.632  46.067  0.00  0.00    +0.000 A 
ATOM      5  C   UNL     1      24.278  39.967  44.845  0.00  0.00    +0.000 A 
ATOM      6  C   UNL     1      21.832  41.121  45.536  0.00  0.00    +0.000 A 
ATOM      7  C   UNL     1      23.085  39.444  44.332  0.00  0.00    +0.000 A 
ATOM      8  C   UNL     1      21.853  39.989  44.714  0.00  0.00    +0.000 A 
BRANCH   3   9
ATOM      9  O   UNL     1      25.359  41.451  46.454  0.00  0.00    +0.000 OA
BRANCH   9  12
ATOM     10 BR   UNL     1      23.720  39.468  48.172  0.00  0.00    +0.000 Br
ATOM     11  C   UNL     1      24.450  41.152  48.655  0.00  0.00    +0.000 A 
ATOM     12  C   UNL     1      25.201  41.917  47.751  0.00  0.00    +0.000 A 
ATOM     13  C   UNL     1      24.224  41.615  49.957  0.00  0.00    +0.000 A 
ATOM     14  C   UNL     1      25.797  43.104  48.205  0.00  0.00    +0.000 A 
ATOM     15  C   UNL     1      24.763  42.833  50.374  0.00  0.00    +0.000 A 
ATOM     16  C   UNL     1      25.561  43.569  49.502  0.00  0.00    +0.000 A 
ENDBRANCH   9  12
ENDBRANCH   3   9
ENDBRANCH   1   8
BRANCH   2  17
ATOM     17  N   UNL     1      18.912  40.809  45.144  0.00  0.00    +0.000 N 
ATOM     18  C   UNL     1      18.615  40.905  46.494  0.00  0.00    +0.000 C 
ATOM     19  O   UNL     1      18.803  40.000  47.302  0.00  0.00    +0.000 OA
ATOM     20  H   UNL     1      18.832  41.600  44.563  0.00  0.00    +0.000 HD
BRANCH  18  21
ATOM     21  C   UNL     1      18.051  42.196  46.964  0.00  0.00    +0.000 A 
ATOM     22  C   UNL     1      18.831  43.006  47.797  0.00  0.00    +0.000 A 
ATOM     23  C   UNL     1      16.834  42.672  46.462  0.00  0.00    +0.000 A 
ATOM     24  C   UNL     1      18.413  44.303  48.102  0.00  0.00    +0.000 A 
ATOM     25  C   UNL     1      16.429  43.977  46.759  0.00  0.00    +0.000 A 
ATOM     26  C   UNL     1      17.221  44.794  47.568  0.00  0.00    +0.000 A 
ENDBRANCH  18  21
ENDBRANCH   2  17
BRANCH   2  27
ATOM     27  C   UNL     1      18.308  38.517  44.223  0.00  0.00    +0.000 C 
ATOM     28  O   UNL     1      17.398  38.804  43.444  0.00  0.00    +0.000 OA
ATOM     29  N   UNL     1      18.496  37.277  44.793  0.00  0.00    +0.000 N 
ATOM     30  H   UNL     1      19.240  37.188  45.431  0.00  0.00    +0.000 HD
BRANCH  29  31
ATOM     31  C   UNL     1      17.714  36.114  44.548  0.00  0.00    +0.000 A 
ATOM     32  C   UNL     1      17.574  35.524  43.282  0.00  0.00    +0.000 A 
ATOM     33  C   UNL     1      17.059  35.516  45.633  0.00  0.00    +0.000 A 
ATOM     34  C   UNL     1      16.770  34.389  43.117  0.00  0.00    +0.000 A 
ATOM     35  C   UNL     1      16.243  34.387  45.450  0.00  0.00    +0.000 A 
ATOM     36  C   UNL     1      16.096  33.821  44.190  0.00  0.00    +0.000 A 
BRANCH  34  37
ATOM     37  O   UNL     1      16.627  33.796  41.895  0.00  0.00    +0.000 OA
ATOM     38  H   UNL     1      15.850  33.310  41.698  0.00  0.00    +0.000 HD
ENDBRANCH  34  37
ENDBRANCH  29  31
ENDBRANCH   2  27
TORSDOF 8
ENDMDL
MODEL 3
REMARK VINA RESULT:       1.3      3.447      8.928
REMARK  Name = 324498
REMARK  8 active torsions:
REMARK  status: ('A' for Active; 'I' for Inactive)
REMARK    1  A    between atoms: C_3  and  O_5
REMARK    2  A    between atoms: O_5  and  C_8
REMARK    3  A    between atoms: C_14  and  C_15
REMARK    4  A    between atoms: C_16  and  N_17
REMARK    5  A    between atoms: C_16  and  C_18
REMARK    6  A    between atoms: C_19  and  C_23
REMARK    7  A    between atoms: N_21  and  C_24
REMARK    8  A    between atoms: C_31  and  O_34
REMARK                            x       y       z     vdW  Elec       q    Type
REMARK                         _______ _______ _______ _____ _____    ______ ____
ROOT
ATOM      1  C   UNL     1      22.909  41.068  45.830  0.00  0.00    +0.000 C 
ATOM      2  C   UNL     1      22.607  41.922  46.827  0.00  0.00    +0.000 C 
ENDROOT
BRANCH   1   8
ATOM      3  C   UNL     1      19.951  39.232  43.412  0.00  0.00    +0.000 A 
ATOM      4  C   UNL     1      20.914  38.442  44.052  0.00  0.00    +0.000 A 
ATOM      5  C   UNL     1      20.131  40.617  43.347  0.00  0.00    +0.000 A 
ATOM      6  C   UNL     1      21.967  39.049  44.747  0.00  0.00    +0.000 A 
ATOM      7  C   UNL     1      21.172  41.223  44.060  0.00  0.00    +0.000 A 
ATOM      8  C   UNL     1      22.066  40.444  44.803  0.00  0.00    +0.000 A 
BRANCH   3   9
ATOM      9  O   UNL     1      18.852  38.589  42.883  0.00  0.00    +0.000 OA
BRANCH   9  12
ATOM     10 BR   UNL     1      16.809  40.828  43.497  0.00  0.00    +0.000 Br
ATOM     11  C   UNL     1      16.876  39.052  44.164  0.00  0.00    +0.000 A 
ATOM     12  C   UNL     1      17.866  38.149  43.753  0.00  0.00    +0.000 A 
ATOM     13  C   UNL     1      15.895  38.660  45.083  0.00  0.00    +0.000 A 
ATOM     14  C   UNL     1      17.796  36.822  44.207  0.00  0.00    +0.000 A 
ATOM     15  C   UNL     1      15.880  37.356  45.581  0.00  0.00    +0.000 A 
ATOM     16  C   UNL     1      16.822  36.435  45.132  0.00  0.00    +0.000 A 
ENDBRANCH   9  12
ENDBRANCH   3   9
ENDBRANCH   1   8
BRANCH   2  17
ATOM     17  N   UNL     1      21.361  42.503  46.988  0.00  0.00    +0.000 N 
ATOM     18  C   UNL     1      20.261  41.704  47.254  0.00  0.00    +0.000 C 
ATOM     19  O   UNL     1      20.327  40.500  47.478  0.00  0.00    +0.000 OA
ATOM     20  H   UNL     1      21.257  43.479  46.914  0.00  0.00    +0.000 HD
BRANCH  18  21
ATOM     21  C   UNL     1      18.937  42.378  47.277  0.00  0.00    +0.000 A 
ATOM     22  C   UNL     1      18.878  43.730  47.633  0.00  0.00    +0.000 A 
ATOM     23  C   UNL     1      17.792  41.727  46.801  0.00  0.00    +0.000 A 
ATOM     24  C   UNL     1      17.685  44.442  47.482  0.00  0.00    +0.000 A 
ATOM     25  C   UNL     1      16.606  42.449  46.638  0.00  0.00    +0.000 A 
ATOM     26  C   UNL     1      16.556  43.805  46.968  0.00  0.00    +0.000 A 
ENDBRANCH  18  21
ENDBRANCH   2  17
BRANCH   2  27
ATOM     27  C   UNL     1      23.783  42.299  47.734  0.00  0.00    +0.000 C 
ATOM     28  O   UNL     1      24.865  42.590  47.221  0.00  0.00    +0.000 OA
ATOM     29  N   UNL     1      23.534  42.274  49.088  0.00  0.00    +0.000 N 
ATOM     30  H   UNL     1      22.636  41.986  49.371  0.00  0.00    +0.000 HD
BRANCH  29  31
ATOM     31  C   UNL     1      24.452  42.624  50.117  0.00  0.00    +0.000 A 
ATOM     32  C   UNL     1      24.068  42.922  51.434  0.00  0.00    +0.000 A 
ATOM     33  C   UNL     1      25.817  42.659  49.801  0.00  0.00    +0.000 A 
ATOM     34  C   UNL     1      25.031  43.277  52.388  0.00  0.00    +0.000 A 
ATOM     35  C   UNL     1      26.770  43.033  50.764  0.00  0.00    +0.000 A 
ATOM     36  C   UNL     1      26.379  43.343  52.060  0.00  0.00    +0.000 A 
BRANCH  34  37
ATOM     37  O   UNL     1      24.679  43.564  53.675  0.00  0.00    +0.000 OA
ATOM     38  H   UNL     1      23.784  43.744  53.887  0.00  0.00    +0.000 HD
ENDBRANCH  34  37
ENDBRANCH  29  31
ENDBRANCH   2  27
TORSDOF 8
ENDMDL
MODEL 4
REMARK VINA RESULT:       1.5      3.492      9.319
REMARK  Name = 324498
REMARK  8 active torsions:
REMARK  status: ('A' for Active; 'I' for Inactive)
REMARK    1  A    between atoms: C_3  and  O_5
REMARK    2  A    between atoms: O_5  and  C_8
REMARK    3  A    between atoms: C_14  and  C_15
REMARK    4  A    between atoms: C_16  and  N_17
REMARK    5  A    between atoms: C_16  and  C_18
REMARK    6  A    between atoms: C_19  and  C_23
REMARK    7  A    between atoms: N_21  and  C_24
REMARK    8  A    between atoms: C_31  and  O_34
REMARK                            x       y       z     vdW  Elec       q    Type
REMARK                         _______ _______ _______ _____ _____    ______ ____
ROOT
ATOM      1  C   UNL     1      21.874  42.119  45.797  0.00  0.00    +0.000 C 
ATOM      2  C   UNL     1      21.661  41.095  46.646  0.00  0.00    +0.000 C 
ENDROOT
BRANCH   1   8
ATOM      3  C   UNL     1      19.387  42.814  42.435  0.00  0.00    +0.000 A 
ATOM      4  C   UNL     1      20.209  41.681  42.469  0.00  0.00    +0.000 A 
ATOM      5  C   UNL     1      19.591  43.839  43.363  0.00  0.00    +0.000 A 
ATOM      6  C   UNL     1      21.124  41.512  43.515  0.00  0.00    +0.000 A 
ATOM      7  C   UNL     1      20.490  43.659  44.420  0.00  0.00    +0.000 A 
ATOM      8  C   UNL     1      21.226  42.472  44.527  0.00  0.00    +0.000 A 
BRANCH   3   9
ATOM      9  O   UNL     1      18.397  42.852  41.476  0.00  0.00    +0.000 OA
BRANCH   9  12
ATOM     10 BR   UNL     1      16.859  42.605  38.804  0.00  0.00    +0.000 Br
ATOM     11  C   UNL     1      16.527  41.742  40.461  0.00  0.00    +0.000 A 
ATOM     12  C   UNL     1      17.350  41.947  41.577  0.00  0.00    +0.000 A 
ATOM     13  C   UNL     1      15.428  40.876  40.541  0.00  0.00    +0.000 A 
ATOM     14  C   UNL     1      17.108  41.199  42.740  0.00  0.00    +0.000 A 
ATOM     15  C   UNL     1      15.157  40.193  41.727  0.00  0.00    +0.000 A 
ATOM     16  C   UNL     1      16.005  40.343  42.820  0.00  0.00    +0.000 A 
ENDBRANCH   9  12
ENDBRANCH   3   9
ENDBRANCH   1   8
BRANCH   2  17
ATOM     17  N   UNL     1      20.620  40.194  46.515  0.00  0.00    +0.000 N 
ATOM     18  C   UNL     1      19.313  40.654  46.476  0.00  0.00    +0.000 C 
ATOM     19  O   UNL     1      19.007  41.841  46.434  0.00  0.00    +0.000 OA
ATOM     20  H   UNL     1      20.806  39.229  46.447  0.00  0.00    +0.000 HD
BRANCH  18  21
ATOM     21  C   UNL     1      18.243  39.625  46.473  0.00  0.00    +0.000 A 
ATOM     22  C   UNL     1      17.156  39.784  47.341  0.00  0.00    +0.000 A 
ATOM     23  C   UNL     1      18.232  38.602  45.517  0.00  0.00    +0.000 A 
ATOM     24  C   UNL     1      16.045  38.944  47.232  0.00  0.00    +0.000 A 
ATOM     25  C   UNL     1      17.111  37.775  45.404  0.00  0.00    +0.000 A 
ATOM     26  C   UNL     1      16.017  37.953  46.252  0.00  0.00    +0.000 A 
ENDBRANCH  18  21
ENDBRANCH   2  17
BRANCH   2  27
ATOM     27  C   UNL     1      22.606  41.050  47.852  0.00  0.00    +0.000 C 
ATOM     28  O   UNL     1      22.906  39.959  48.336  0.00  0.00    +0.000 OA
ATOM     29  N   UNL     1      23.050  42.269  48.316  0.00  0.00    +0.000 N 
ATOM     30  H   UNL     1      22.704  43.072  47.864  0.00  0.00    +0.000 HD
BRANCH  29  31
ATOM     31  C   UNL     1      23.961  42.475  49.389  0.00  0.00    +0.000 A 
ATOM     32  C   UNL     1      23.569  42.591  50.732  0.00  0.00    +0.000 A 
ATOM     33  C   UNL     1      25.328  42.554  49.090  0.00  0.00    +0.000 A 
ATOM     34  C   UNL     1      24.525  42.813  51.731  0.00  0.00    +0.000 A 
ATOM     35  C   UNL     1      26.275  42.794  50.101  0.00  0.00    +0.000 A 
ATOM     36  C   UNL     1      25.874  42.924  51.425  0.00  0.00    +0.000 A 
BRANCH  34  37
ATOM     37  O   UNL     1      24.164  42.921  53.043  0.00  0.00    +0.000 OA
ATOM     38  H   UNL     1      23.881  43.746  53.385  0.00  0.00    +0.000 HD
ENDBRANCH  34  37
ENDBRANCH  29  31
ENDBRANCH   2  27
TORSDOF 8
ENDMDL
MODEL 5
REMARK VINA RESULT:       1.7      4.706      8.236
REMARK  Name = 324498
REMARK  8 active torsions:
REMARK  status: ('A' for Active; 'I' for Inactive)
REMARK    1  A    between atoms: C_3  and  O_5
REMARK    2  A    between atoms: O_5  and  C_8
REMARK    3  A    between atoms: C_14  and  C_15
REMARK    4  A    between atoms: C_16  and  N_17
REMARK    5  A    between atoms: C_16  and  C_18
REMARK    6  A    between atoms: C_19  and  C_23
REMARK    7  A    between atoms: N_21  and  C_24
REMARK    8  A    between atoms: C_31  and  O_34
REMARK                            x       y       z     vdW  Elec       q    Type
REMARK                         _______ _______ _______ _____ _____    ______ ____
ROOT
ATOM      1  C   UNL     1      23.999  40.948  43.446  0.00  0.00    +0.000 C 
ATOM      2  C   UNL     1      25.091  41.579  43.920  0.00  0.00    +0.000 C 
ENDROOT
BRANCH   1   8
ATOM      3  C   UNL     1      20.293  39.844  45.183  0.00  0.00    +0.000 A 
ATOM      4  C   UNL     1      21.232  40.555  45.941  0.00  0.00    +0.000 A 
ATOM      5  C   UNL     1      20.683  39.268  43.971  0.00  0.00    +0.000 A 
ATOM      6  C   UNL     1      22.505  40.811  45.416  0.00  0.00    +0.000 A 
ATOM      7  C   UNL     1      21.948  39.543  43.438  0.00  0.00    +0.000 A 
ATOM      8  C   UNL     1      22.847  40.357  44.138  0.00  0.00    +0.000 A 
BRANCH   3   9
ATOM      9  O   UNL     1      19.009  39.760  45.678  0.00  0.00    +0.000 OA
BRANCH   9  12
ATOM     10 BR   UNL     1      17.029  40.336  43.373  0.00  0.00    +0.000 Br
ATOM     11  C   UNL     1      17.393  41.366  44.925  0.00  0.00    +0.000 A 
ATOM     12  C   UNL     1      18.310  40.938  45.895  0.00  0.00    +0.000 A 
ATOM     13  C   UNL     1      16.707  42.577  45.083  0.00  0.00    +0.000 A 
ATOM     14  C   UNL     1      18.455  41.698  47.067  0.00  0.00    +0.000 A 
ATOM     15  C   UNL     1      16.915  43.359  46.221  0.00  0.00    +0.000 A 
ATOM     16  C   UNL     1      17.777  42.911  47.218  0.00  0.00    +0.000 A 
ENDBRANCH   9  12
ENDBRANCH   3   9
ENDBRANCH   1   8
BRANCH   2  17
ATOM     17  N   UNL     1      25.266  41.912  45.251  0.00  0.00    +0.000 N 
ATOM     18  C   UNL     1      25.354  40.911  46.205  0.00  0.00    +0.000 C 
ATOM     19  O   UNL     1      25.404  39.714  45.938  0.00  0.00    +0.000 OA
ATOM     20  H   UNL     1      25.330  42.858  45.520  0.00  0.00    +0.000 HD
BRANCH  18  21
ATOM     21  C   UNL     1      25.402  41.343  47.625  0.00  0.00    +0.000 A 
ATOM     22  C   UNL     1      26.340  42.312  48.001  0.00  0.00    +0.000 A 
ATOM     23  C   UNL     1      24.431  40.915  48.539  0.00  0.00    +0.000 A 
ATOM     24  C   UNL     1      26.288  42.878  49.276  0.00  0.00    +0.000 A 
ATOM     25  C   UNL     1      24.376  41.497  49.809  0.00  0.00    +0.000 A 
ATOM     26  C   UNL     1      25.295  42.483  50.173  0.00  0.00    +0.000 A 
ENDBRANCH  18  21
ENDBRANCH   2  17
BRANCH   2  27
ATOM     27  C   UNL     1      26.106  42.003  42.853  0.00  0.00    +0.000 C 
ATOM     28  O   UNL     1      27.182  41.408  42.781  0.00  0.00    +0.000 OA
ATOM     29  N   UNL     1      25.726  43.048  42.041  0.00  0.00    +0.000 N 
ATOM     30  H   UNL     1      24.853  43.464  42.227  0.00  0.00    +0.000 HD
BRANCH  29  31
ATOM     31  C   UNL     1      26.478  43.586  40.959  0.00  0.00    +0.000 A 
ATOM     32  C   UNL     1      26.825  44.942  40.851  0.00  0.00    +0.000 A 
ATOM     33  C   UNL     1      26.908  42.710  39.953  0.00  0.00    +0.000 A 
ATOM     34  C   UNL     1      27.552  45.399  39.744  0.00  0.00    +0.000 A 
ATOM     35  C   UNL     1      27.623  43.186  38.840  0.00  0.00    +0.000 A 
ATOM     36  C   UNL     1      27.946  44.533  38.734  0.00  0.00    +0.000 A 
BRANCH  34  37
ATOM     37  O   UNL     1      27.905  46.712  39.624  0.00  0.00    +0.000 OA
ATOM     38  H   UNL     1      28.303  47.159  40.345  0.00  0.00    +0.000 HD
ENDBRANCH  34  37
ENDBRANCH  29  31
ENDBRANCH   2  27
TORSDOF 8
ENDMDL
MODEL 6
REMARK VINA RESULT:       2.1      3.516      8.841
REMARK  Name = 324498
REMARK  8 active torsions:
REMARK  status: ('A' for Active; 'I' for Inactive)
REMARK    1  A    between atoms: C_3  and  O_5
REMARK    2  A    between atoms: O_5  and  C_8
REMARK    3  A    between atoms: C_14  and  C_15
REMARK    4  A    between atoms: C_16  and  N_17
REMARK    5  A    between atoms: C_16  and  C_18
REMARK    6  A    between atoms: C_19  and  C_23
REMARK    7  A    between atoms: N_21  and  C_24
REMARK    8  A    between atoms: C_31  and  O_34
REMARK                            x       y       z     vdW  Elec       q    Type
REMARK                         _______ _______ _______ _____ _____    ______ ____
ROOT
ATOM      1  C   UNL     1      21.672  40.446  45.114  0.00  0.00    +0.000 C 
ATOM      2  C   UNL     1      21.734  41.482  45.974  0.00  0.00    +0.000 C 
ENDROOT
BRANCH   1   8
ATOM      3  C   UNL     1      18.140  38.576  43.701  0.00  0.00    +0.000 A 
ATOM      4  C   UNL     1      19.332  37.843  43.780  0.00  0.00    +0.000 A 
ATOM      5  C   UNL     1      18.181  39.968  43.821  0.00  0.00    +0.000 A 
ATOM      6  C   UNL     1      20.527  38.487  44.123  0.00  0.00    +0.000 A 
ATOM      7  C   UNL     1      19.372  40.606  44.186  0.00  0.00    +0.000 A 
ATOM      8  C   UNL     1      20.540  39.861  44.386  0.00  0.00    +0.000 A 
BRANCH   3   9
ATOM      9  O   UNL     1      16.971  37.868  43.519  0.00  0.00    +0.000 OA
BRANCH   9  12
ATOM     10 BR   UNL     1      16.687  38.285  46.570  0.00  0.00    +0.000 Br
ATOM     11  C   UNL     1      16.717  36.666  45.580  0.00  0.00    +0.000 A 
ATOM     12  C   UNL     1      16.824  36.659  44.182  0.00  0.00    +0.000 A 
ATOM     13  C   UNL     1      16.621  35.462  46.289  0.00  0.00    +0.000 A 
ATOM     14  C   UNL     1      16.737  35.432  43.506  0.00  0.00    +0.000 A 
ATOM     15  C   UNL     1      16.608  34.244  45.608  0.00  0.00    +0.000 A 
ATOM     16  C   UNL     1      16.651  34.231  44.217  0.00  0.00    +0.000 A 
ENDBRANCH   9  12
ENDBRANCH   3   9
ENDBRANCH   1   8
BRANCH   2  17
ATOM     17  N   UNL     1      20.665  42.319  46.243  0.00  0.00    +0.000 N 
ATOM     18  C   UNL     1      19.659  41.895  47.097  0.00  0.00    +0.000 C 
ATOM     19  O   UNL     1      19.701  40.850  47.738  0.00  0.00    +0.000 OA
ATOM     20  H   UNL     1      20.620  43.212  45.832  0.00  0.00    +0.000 HD
BRANCH  18  21
ATOM     21  C   UNL     1      18.479  42.786  47.231  0.00  0.00    +0.000 A 
ATOM     22  C   UNL     1      18.569  43.897  48.078  0.00  0.00    +0.000 A 
ATOM     23  C   UNL     1      17.355  42.617  46.414  0.00  0.00    +0.000 A 
ATOM     24  C   UNL     1      17.554  44.856  48.084  0.00  0.00    +0.000 A 
ATOM     25  C   UNL     1      16.349  43.589  46.414  0.00  0.00    +0.000 A 
ATOM     26  C   UNL     1      16.454  44.710  47.239  0.00  0.00    +0.000 A 
ENDBRANCH  18  21
ENDBRANCH   2  17
BRANCH   2  27
ATOM     27  C   UNL     1      23.120  41.743  46.572  0.00  0.00    +0.000 C 
ATOM     28  O   UNL     1      24.079  41.897  45.814  0.00  0.00    +0.000 OA
ATOM     29  N   UNL     1      23.187  41.779  47.947  0.00  0.00    +0.000 N 
ATOM     30  H   UNL     1      22.353  41.602  48.439  0.00  0.00    +0.000 HD
BRANCH  29  31
ATOM     31  C   UNL     1      24.349  42.046  48.723  0.00  0.00    +0.000 A 
ATOM     32  C   UNL     1      25.613  41.498  48.447  0.00  0.00    +0.000 A 
ATOM     33  C   UNL     1      24.230  42.916  49.815  0.00  0.00    +0.000 A 
ATOM     34  C   UNL     1      26.707  41.794  49.269  0.00  0.00    +0.000 A 
ATOM     35  C   UNL     1      25.333  43.191  50.642  0.00  0.00    +0.000 A 
ATOM     36  C   UNL     1      26.575  42.630  50.370  0.00  0.00    +0.000 A 
BRANCH  34  37
ATOM     37  O   UNL     1      27.943  41.277  49.014  0.00  0.00    +0.000 OA
ATOM     38  H   UNL     1      28.462  41.624  48.315  0.00  0.00    +0.000 HD
ENDBRANCH  34  37
ENDBRANCH  29  31
ENDBRANCH   2  27
TORSDOF 8
ENDMDL
MODEL 7
REMARK VINA RESULT:       2.5      3.519      9.472
REMARK  Name = 324498
REMARK  8 active torsions:
REMARK  status: ('A' for Active; 'I' for Inactive)
REMARK    1  A    between atoms: C_3  and  O_5
REMARK    2  A    between atoms: O_5  and  C_8
REMARK    3  A    between atoms: C_14  and  C_15
REMARK    4  A    between atoms: C_16  and  N_17
REMARK    5  A    between atoms: C_16  and  C_18
REMARK    6  A    between atoms: C_19  and  C_23
REMARK    7  A    between atoms: N_21  and  C_24
REMARK    8  A    between atoms: C_31  and  O_34
REMARK                            x       y       z     vdW  Elec       q    Type
REMARK                         _______ _______ _______ _____ _____    ______ ____
ROOT
ATOM      1  C   UNL     1      21.262  42.334  45.836  0.00  0.00    +0.000 C 
ATOM      2  C   UNL     1      21.149  41.300  46.692  0.00  0.00    +0.000 C 
ENDROOT
BRANCH   1   8
ATOM      3  C   UNL     1      18.608  42.938  42.586  0.00  0.00    +0.000 A 
ATOM      4  C   UNL     1      19.992  42.964  42.368  0.00  0.00    +0.000 A 
ATOM      5  C   UNL     1      18.118  42.992  43.893  0.00  0.00    +0.000 A 
ATOM      6  C   UNL     1      20.872  42.892  43.454  0.00  0.00    +0.000 A 
ATOM      7  C   UNL     1      18.998  42.898  44.977  0.00  0.00    +0.000 A 
ATOM      8  C   UNL     1      20.378  42.799  44.760  0.00  0.00    +0.000 A 
BRANCH   3   9
ATOM      9  O   UNL     1      17.793  42.848  41.478  0.00  0.00    +0.000 OA
BRANCH   9  12
ATOM     10 BR   UNL     1      16.350  42.773  38.743  0.00  0.00    +0.000 Br
ATOM     11  C   UNL     1      16.111  41.651  40.255  0.00  0.00    +0.000 A 
ATOM     12  C   UNL     1      16.879  41.807  41.417  0.00  0.00    +0.000 A 
ATOM     13  C   UNL     1      15.140  40.644  40.176  0.00  0.00    +0.000 A 
ATOM     14  C   UNL     1      16.722  40.878  42.458  0.00  0.00    +0.000 A 
ATOM     15  C   UNL     1      14.945  39.772  41.248  0.00  0.00    +0.000 A 
ATOM     16  C   UNL     1      15.745  39.881  42.381  0.00  0.00    +0.000 A 
ENDBRANCH   9  12
ENDBRANCH   3   9
ENDBRANCH   1   8
BRANCH   2  17
ATOM     17  N   UNL     1      20.020  40.506  46.790  0.00  0.00    +0.000 N 
ATOM     18  C   UNL     1      19.599  39.772  45.692  0.00  0.00    +0.000 C 
ATOM     19  O   UNL     1      20.233  39.681  44.645  0.00  0.00    +0.000 OA
ATOM     20  H   UNL     1      19.519  40.461  47.636  0.00  0.00    +0.000 HD
BRANCH  18  21
ATOM     21  C   UNL     1      18.307  39.053  45.826  0.00  0.00    +0.000 A 
ATOM     22  C   UNL     1      17.297  39.626  46.608  0.00  0.00    +0.000 A 
ATOM     23  C   UNL     1      18.039  37.909  45.063  0.00  0.00    +0.000 A 
ATOM     24  C   UNL     1      16.012  39.078  46.603  0.00  0.00    +0.000 A 
ATOM     25  C   UNL     1      16.747  37.375  45.051  0.00  0.00    +0.000 A 
ATOM     26  C   UNL     1      15.735  37.964  45.810  0.00  0.00    +0.000 A 
ENDBRANCH  18  21
ENDBRANCH   2  17
BRANCH   2  27
ATOM     27  C   UNL     1      22.336  41.116  47.643  0.00  0.00    +0.000 C 
ATOM     28  O   UNL     1      22.600  39.988  48.061  0.00  0.00    +0.000 OA
ATOM     29  N   UNL     1      23.030  42.261  47.969  0.00  0.00    +0.000 N 
ATOM     30  H   UNL     1      22.694  43.108  47.598  0.00  0.00    +0.000 HD
BRANCH  29  31
ATOM     31  C   UNL     1      24.186  42.333  48.795  0.00  0.00    +0.000 A 
ATOM     32  C   UNL     1      25.450  41.856  48.408  0.00  0.00    +0.000 A 
ATOM     33  C   UNL     1      24.062  42.927  50.058  0.00  0.00    +0.000 A 
ATOM     34  C   UNL     1      26.538  41.946  49.286  0.00  0.00    +0.000 A 
ATOM     35  C   UNL     1      25.159  42.996  50.934  0.00  0.00    +0.000 A 
ATOM     36  C   UNL     1      26.400  42.505  50.549  0.00  0.00    +0.000 A 
BRANCH  34  37
ATOM     37  O   UNL     1      27.774  41.494  48.926  0.00  0.00    +0.000 OA
ATOM     38  H   UNL     1      27.861  40.682  48.465  0.00  0.00    +0.000 HD
ENDBRANCH  34  37
ENDBRANCH  29  31
ENDBRANCH   2  27
TORSDOF 8
ENDMDL
