MODEL 1
REMARK VINA RESULT:      -8.9      0.000      0.000
REMARK  Name = 322755
REMARK  9 active torsions:
REMARK  status: ('A' for Active; 'I' for Inactive)
REMARK    1  A    between atoms: C_3  and  O_5
REMARK    2  A    between atoms: O_5  and  C_8
REMARK    3  A    between atoms: C_14  and  C_15
REMARK    4  A    between atoms: CA_16  and  N_17
REMARK    5  A    between atoms: CA_16  and  C_18
REMARK    6  A    between atoms: C_19  and  C_23
REMARK    7  A    between atoms: C_23  and  C_24
REMARK    8  A    between atoms: C_24  and  C_25
REMARK    9  A    between atoms: C_25  and  C_26
REMARK                            x       y       z     vdW  Elec       q    Type
REMARK                         _______ _______ _______ _____ _____    ______ ____
ROOT
ATOM      1  C   UNL     1      19.453  41.637  43.526  0.00  0.00    +0.000 C 
ATOM      2  CA  UNL     1      18.230  41.095  43.606  0.00  0.00    +0.000 C 
ENDROOT
BRANCH   1   8
ATOM      3  C   UNL     1      21.899  41.450  46.944  0.00  0.00    +0.000 A 
ATOM      4  C   UNL     1      21.186  42.624  46.703  0.00  0.00    +0.000 A 
ATOM      5  C   UNL     1      22.087  40.532  45.908  0.00  0.00    +0.000 A 
ATOM      6  C   UNL     1      20.451  42.754  45.515  0.00  0.00    +0.000 A 
ATOM      7  C   UNL     1      21.387  40.677  44.709  0.00  0.00    +0.000 A 
ATOM      8  C   UNL     1      20.494  41.743  44.551  0.00  0.00    +0.000 A 
BRANCH   3   9
ATOM      9  O   UNL     1      22.443  41.083  48.149  0.00  0.00    +0.000 OA
BRANCH   9  12
ATOM     10  I   UNL     1      25.528  40.600  46.337  0.00  0.00    +0.000 I 
ATOM     11  C   UNL     1      24.936  41.489  48.157  0.00  0.00    +0.000 A 
ATOM     12  C   UNL     1      23.619  41.619  48.630  0.00  0.00    +0.000 A 
ATOM     13  C   UNL     1      25.989  42.127  48.840  0.00  0.00    +0.000 A 
ATOM     14  C   UNL     1      23.384  42.520  49.685  0.00  0.00    +0.000 A 
ATOM     15  C   UNL     1      25.734  42.987  49.907  0.00  0.00    +0.000 A 
ATOM     16  C   UNL     1      24.425  43.213  50.307  0.00  0.00    +0.000 A 
ENDBRANCH   9  12
ENDBRANCH   3   9
ENDBRANCH   1   8
BRANCH   2  17
ATOM     17  N   UNL     1      17.808  40.351  44.697  0.00  0.00    +0.000 N 
ATOM     18  C   UNL     1      17.022  40.929  45.679  0.00  0.00    +0.000 C 
ATOM     19  O   UNL     1      16.609  42.083  45.632  0.00  0.00    +0.000 OA
ATOM     20  H   UNL     1      18.069  39.405  44.775  0.00  0.00    +0.000 HD
BRANCH  18  21
ATOM     21  C   UNL     1      16.713  39.985  46.825  0.00  0.00    +0.000 C 
BRANCH  21  22
ATOM     22  C   UNL     1      15.918  38.753  46.370  0.00  0.00    +0.000 C 
BRANCH  22  23
ATOM     23  C   UNL     1      16.682  37.432  46.475  0.00  0.00    +0.000 C 
BRANCH  23  24
ATOM     24  C   UNL     1      17.124  36.948  45.124  0.00  0.00    +0.000 C 
ATOM     25  O   UNL     1      17.934  37.552  44.434  0.00  0.00    +0.000 OA
ATOM     26  O   UNL     1      16.619  35.744  44.778  0.00  0.00    +0.000 OA
ENDBRANCH  23  24
ENDBRANCH  22  23
ENDBRANCH  21  22
ENDBRANCH  18  21
ENDBRANCH   2  17
BRANCH   2  27
ATOM     27  C   UNL     1      17.328  41.323  42.429  0.00  0.00    +0.000 C 
ATOM     28  O   UNL     1      17.561  42.125  41.531  0.00  0.00    +0.000 OA
ATOM     29  OXT UNL     1      16.249  40.514  42.394  0.00  0.00    +0.000 OA
ENDBRANCH   2  27
TORSDOF 9
ENDMDL
MODEL 2
REMARK VINA RESULT:      -7.9      1.095      2.550
REMARK  Name = 322755
REMARK  9 active torsions:
REMARK  status: ('A' for Active; 'I' for Inactive)
REMARK    1  A    between atoms: C_3  and  O_5
REMARK    2  A    between atoms: O_5  and  C_8
REMARK    3  A    between atoms: C_14  and  C_15
REMARK    4  A    between atoms: CA_16  and  N_17
REMARK    5  A    between atoms: CA_16  and  C_18
REMARK    6  A    between atoms: C_19  and  C_23
REMARK    7  A    between atoms: C_23  and  C_24
REMARK    8  A    between atoms: C_24  and  C_25
REMARK    9  A    between atoms: C_25  and  C_26
REMARK                            x       y       z     vdW  Elec       q    Type
REMARK                         _______ _______ _______ _____ _____    ______ ____
ROOT
ATOM      1  C   UNL     1      19.530  41.442  43.409  0.00  0.00    +0.000 C 
ATOM      2  CA  UNL     1      18.242  41.099  43.547  0.00  0.00    +0.000 C 
ENDROOT
BRANCH   1   8
ATOM      3  C   UNL     1      21.951  41.352  46.848  0.00  0.00    +0.000 A 
ATOM      4  C   UNL     1      21.600  42.593  46.317  0.00  0.00    +0.000 A 
ATOM      5  C   UNL     1      21.824  40.205  46.062  0.00  0.00    +0.000 A 
ATOM      6  C   UNL     1      20.887  42.651  45.110  0.00  0.00    +0.000 A 
ATOM      7  C   UNL     1      21.149  40.264  44.842  0.00  0.00    +0.000 A 
ATOM      8  C   UNL     1      20.597  41.476  44.411  0.00  0.00    +0.000 A 
BRANCH   3   9
ATOM      9  O   UNL     1      22.414  41.134  48.120  0.00  0.00    +0.000 OA
BRANCH   9  12
ATOM     10  I   UNL     1      25.464  40.591  46.268  0.00  0.00    +0.000 I 
ATOM     11  C   UNL     1      24.913  41.501  48.090  0.00  0.00    +0.000 A 
ATOM     12  C   UNL     1      23.606  41.655  48.581  0.00  0.00    +0.000 A 
ATOM     13  C   UNL     1      25.986  42.128  48.753  0.00  0.00    +0.000 A 
ATOM     14  C   UNL     1      23.400  42.567  49.633  0.00  0.00    +0.000 A 
ATOM     15  C   UNL     1      25.760  42.999  49.817  0.00  0.00    +0.000 A 
ATOM     16  C   UNL     1      24.460  43.248  50.234  0.00  0.00    +0.000 A 
ENDBRANCH   9  12
ENDBRANCH   3   9
ENDBRANCH   1   8
BRANCH   2  17
ATOM     17  N   UNL     1      17.736  40.522  44.702  0.00  0.00    +0.000 N 
ATOM     18  C   UNL     1      17.720  39.146  44.849  0.00  0.00    +0.000 C 
ATOM     19  O   UNL     1      18.185  38.366  44.026  0.00  0.00    +0.000 OA
ATOM     20  H   UNL     1      17.386  41.095  45.423  0.00  0.00    +0.000 HD
BRANCH  18  21
ATOM     21  C   UNL     1      17.073  38.695  46.145  0.00  0.00    +0.000 C 
BRANCH  21  22
ATOM     22  C   UNL     1      17.020  39.814  47.193  0.00  0.00    +0.000 C 
BRANCH  22  23
ATOM     23  C   UNL     1      18.365  40.488  47.470  0.00  0.00    +0.000 C 
BRANCH  23  24
ATOM     24  C   UNL     1      18.238  41.984  47.469  0.00  0.00    +0.000 C 
ATOM     25  O   UNL     1      17.458  42.584  46.742  0.00  0.00    +0.000 OA
ATOM     26  O   UNL     1      18.995  42.602  48.402  0.00  0.00    +0.000 OA
ENDBRANCH  23  24
ENDBRANCH  22  23
ENDBRANCH  21  22
ENDBRANCH  18  21
ENDBRANCH   2  17
BRANCH   2  27
ATOM     27  C   UNL     1      17.357  41.360  42.362  0.00  0.00    +0.000 C 
ATOM     28  O   UNL     1      16.292  40.787  42.162  0.00  0.00    +0.000 OA
ATOM     29  OXT UNL     1      17.798  42.342  41.549  0.00  0.00    +0.000 OA
ENDBRANCH   2  27
TORSDOF 9
ENDMDL
MODEL 3
REMARK VINA RESULT:      -7.6      3.250      7.319
REMARK  Name = 322755
REMARK  9 active torsions:
REMARK  status: ('A' for Active; 'I' for Inactive)
REMARK    1  A    between atoms: C_3  and  O_5
REMARK    2  A    between atoms: O_5  and  C_8
REMARK    3  A    between atoms: C_14  and  C_15
REMARK    4  A    between atoms: CA_16  and  N_17
REMARK    5  A    between atoms: CA_16  and  C_18
REMARK    6  A    between atoms: C_19  and  C_23
REMARK    7  A    between atoms: C_23  and  C_24
REMARK    8  A    between atoms: C_24  and  C_25
REMARK    9  A    between atoms: C_25  and  C_26
REMARK                            x       y       z     vdW  Elec       q    Type
REMARK                         _______ _______ _______ _____ _____    ______ ____
ROOT
ATOM      1  C   UNL     1      22.710  41.626  47.873  0.00  0.00    +0.000 C 
ATOM      2  CA  UNL     1      23.537  41.404  46.843  0.00  0.00    +0.000 C 
ENDROOT
BRANCH   1   8
ATOM      3  C   UNL     1      18.561  41.730  47.186  0.00  0.00    +0.000 A 
ATOM      4  C   UNL     1      19.135  42.763  47.927  0.00  0.00    +0.000 A 
ATOM      5  C   UNL     1      19.261  40.535  47.010  0.00  0.00    +0.000 A 
ATOM      6  C   UNL     1      20.496  42.696  48.265  0.00  0.00    +0.000 A 
ATOM      7  C   UNL     1      20.604  40.450  47.378  0.00  0.00    +0.000 A 
ATOM      8  C   UNL     1      21.247  41.568  47.923  0.00  0.00    +0.000 A 
BRANCH   3   9
ATOM      9  O   UNL     1      17.333  41.779  46.576  0.00  0.00    +0.000 OA
BRANCH   9  12
ATOM     10  I   UNL     1      16.553  38.310  45.952  0.00  0.00    +0.000 I 
ATOM     11  C   UNL     1      16.901  40.040  44.796  0.00  0.00    +0.000 A 
ATOM     12  C   UNL     1      17.123  41.337  45.286  0.00  0.00    +0.000 A 
ATOM     13  C   UNL     1      16.729  39.836  43.413  0.00  0.00    +0.000 A 
ATOM     14  C   UNL     1      17.006  42.412  44.384  0.00  0.00    +0.000 A 
ATOM     15  C   UNL     1      16.653  40.915  42.533  0.00  0.00    +0.000 A 
ATOM     16  C   UNL     1      16.755  42.208  43.026  0.00  0.00    +0.000 A 
ENDBRANCH   9  12
ENDBRANCH   3   9
ENDBRANCH   1   8
BRANCH   2  17
ATOM     17  N   UNL     1      23.108  40.882  45.632  0.00  0.00    +0.000 N 
ATOM     18  C   UNL     1      23.177  39.520  45.392  0.00  0.00    +0.000 C 
ATOM     19  O   UNL     1      23.555  38.699  46.219  0.00  0.00    +0.000 OA
ATOM     20  H   UNL     1      22.752  41.483  44.938  0.00  0.00    +0.000 HD
BRANCH  18  21
ATOM     21  C   UNL     1      22.726  39.141  43.994  0.00  0.00    +0.000 C 
BRANCH  21  22
ATOM     22  C   UNL     1      22.113  40.325  43.235  0.00  0.00    +0.000 C 
BRANCH  22  23
ATOM     23  C   UNL     1      20.665  40.639  43.615  0.00  0.00    +0.000 C 
BRANCH  23  24
ATOM     24  C   UNL     1      20.405  42.118  43.600  0.00  0.00    +0.000 C 
ATOM     25  O   UNL     1      19.866  42.689  42.662  0.00  0.00    +0.000 OA
ATOM     26  O   UNL     1      20.736  42.748  44.749  0.00  0.00    +0.000 OA
ENDBRANCH  23  24
ENDBRANCH  22  23
ENDBRANCH  21  22
ENDBRANCH  18  21
ENDBRANCH   2  17
BRANCH   2  27
ATOM     27  C   UNL     1      24.983  41.738  47.072  0.00  0.00    +0.000 C 
ATOM     28  O   UNL     1      25.387  42.441  47.992  0.00  0.00    +0.000 OA
ATOM     29  OXT UNL     1      25.831  41.139  46.211  0.00  0.00    +0.000 OA
ENDBRANCH   2  27
TORSDOF 9
ENDMDL
MODEL 4
REMARK VINA RESULT:      -7.5      2.880      7.944
REMARK  Name = 322755
REMARK  9 active torsions:
REMARK  status: ('A' for Active; 'I' for Inactive)
REMARK    1  A    between atoms: C_3  and  O_5
REMARK    2  A    between atoms: O_5  and  C_8
REMARK    3  A    between atoms: C_14  and  C_15
REMARK    4  A    between atoms: CA_16  and  N_17
REMARK    5  A    between atoms: CA_16  and  C_18
REMARK    6  A    between atoms: C_19  and  C_23
REMARK    7  A    between atoms: C_23  and  C_24
REMARK    8  A    between atoms: C_24  and  C_25
REMARK    9  A    between atoms: C_25  and  C_26
REMARK                            x       y       z     vdW  Elec       q    Type
REMARK                         _______ _______ _______ _____ _____    ______ ____
ROOT
ATOM      1  C   UNL     1      23.329  40.209  44.406  0.00  0.00    +0.000 C 
ATOM      2  CA  UNL     1      23.901  40.573  45.562  0.00  0.00    +0.000 C 
ENDROOT
BRANCH   1   8
ATOM      3  C   UNL     1      19.215  40.762  43.721  0.00  0.00    +0.000 A 
ATOM      4  C   UNL     1      19.845  39.669  43.126  0.00  0.00    +0.000 A 
ATOM      5  C   UNL     1      19.985  41.823  44.203  0.00  0.00    +0.000 A 
ATOM      6  C   UNL     1      21.235  39.523  43.247  0.00  0.00    +0.000 A 
ATOM      7  C   UNL     1      21.372  41.698  44.290  0.00  0.00    +0.000 A 
ATOM      8  C   UNL     1      21.988  40.505  43.896  0.00  0.00    +0.000 A 
BRANCH   3   9
ATOM      9  O   UNL     1      17.862  40.898  43.902  0.00  0.00    +0.000 OA
BRANCH   9  12
ATOM     10  I   UNL     1      17.033  43.119  46.624  0.00  0.00    +0.000 I 
ATOM     11  C   UNL     1      16.865  41.056  46.217  0.00  0.00    +0.000 A 
ATOM     12  C   UNL     1      17.206  40.414  45.014  0.00  0.00    +0.000 A 
ATOM     13  C   UNL     1      16.200  40.335  47.228  0.00  0.00    +0.000 A 
ATOM     14  C   UNL     1      16.723  39.109  44.804  0.00  0.00    +0.000 A 
ATOM     15  C   UNL     1      15.764  39.029  47.009  0.00  0.00    +0.000 A 
ATOM     16  C   UNL     1      15.994  38.428  45.780  0.00  0.00    +0.000 A 
ENDBRANCH   9  12
ENDBRANCH   3   9
ENDBRANCH   1   8
BRANCH   2  17
ATOM     17  N   UNL     1      23.328  41.492  46.428  0.00  0.00    +0.000 N 
ATOM     18  C   UNL     1      22.519  41.066  47.467  0.00  0.00    +0.000 C 
ATOM     19  O   UNL     1      22.303  39.887  47.725  0.00  0.00    +0.000 OA
ATOM     20  H   UNL     1      23.497  42.454  46.303  0.00  0.00    +0.000 HD
BRANCH  18  21
ATOM     21  C   UNL     1      21.929  42.211  48.268  0.00  0.00    +0.000 C 
BRANCH  21  22
ATOM     22  C   UNL     1      22.870  42.696  49.377  0.00  0.00    +0.000 C 
BRANCH  22  23
ATOM     23  C   UNL     1      24.135  41.853  49.549  0.00  0.00    +0.000 C 
BRANCH  23  24
ATOM     24  C   UNL     1      25.361  42.717  49.637  0.00  0.00    +0.000 C 
ATOM     25  O   UNL     1      25.751  43.211  50.686  0.00  0.00    +0.000 OA
ATOM     26  O   UNL     1      26.043  42.826  48.476  0.00  0.00    +0.000 OA
ENDBRANCH  23  24
ENDBRANCH  22  23
ENDBRANCH  21  22
ENDBRANCH  18  21
ENDBRANCH   2  17
BRANCH   2  27
ATOM     27  C   UNL     1      25.226  39.939  45.872  0.00  0.00    +0.000 C 
ATOM     28  O   UNL     1      26.232  40.569  46.182  0.00  0.00    +0.000 OA
ATOM     29  OXT UNL     1      25.212  38.591  45.851  0.00  0.00    +0.000 OA
ENDBRANCH   2  27
TORSDOF 9
ENDMDL
MODEL 5
REMARK VINA RESULT:      -7.2      2.923      7.260
REMARK  Name = 322755
REMARK  9 active torsions:
REMARK  status: ('A' for Active; 'I' for Inactive)
REMARK    1  A    between atoms: C_3  and  O_5
REMARK    2  A    between atoms: O_5  and  C_8
REMARK    3  A    between atoms: C_14  and  C_15
REMARK    4  A    between atoms: CA_16  and  N_17
REMARK    5  A    between atoms: CA_16  and  C_18
REMARK    6  A    between atoms: C_19  and  C_23
REMARK    7  A    between atoms: C_23  and  C_24
REMARK    8  A    between atoms: C_24  and  C_25
REMARK    9  A    between atoms: C_25  and  C_26
REMARK                            x       y       z     vdW  Elec       q    Type
REMARK                         _______ _______ _______ _____ _____    ______ ____
ROOT
ATOM      1  C   UNL     1      24.147  40.689  45.416  0.00  0.00    +0.000 C 
ATOM      2  CA  UNL     1      24.128  41.363  46.574  0.00  0.00    +0.000 C 
ENDROOT
BRANCH   1   8
ATOM      3  C   UNL     1      20.513  39.674  43.556  0.00  0.00    +0.000 A 
ATOM      4  C   UNL     1      21.495  38.690  43.673  0.00  0.00    +0.000 A 
ATOM      5  C   UNL     1      20.862  41.018  43.704  0.00  0.00    +0.000 A 
ATOM      6  C   UNL     1      22.755  39.030  44.188  0.00  0.00    +0.000 A 
ATOM      7  C   UNL     1      22.128  41.364  44.180  0.00  0.00    +0.000 A 
ATOM      8  C   UNL     1      23.044  40.359  44.512  0.00  0.00    +0.000 A 
BRANCH   3   9
ATOM      9  O   UNL     1      19.183  39.443  43.316  0.00  0.00    +0.000 OA
BRANCH   9  12
ATOM     10  I   UNL     1      17.107  42.372  43.697  0.00  0.00    +0.000 I 
ATOM     11  C   UNL     1      17.377  40.537  44.702  0.00  0.00    +0.000 A 
ATOM     12  C   UNL     1      18.226  39.489  44.308  0.00  0.00    +0.000 A 
ATOM     13  C   UNL     1      16.482  40.345  45.773  0.00  0.00    +0.000 A 
ATOM     14  C   UNL     1      18.035  38.227  44.901  0.00  0.00    +0.000 A 
ATOM     15  C   UNL     1      16.337  39.094  46.370  0.00  0.00    +0.000 A 
ATOM     16  C   UNL     1      17.089  38.023  45.907  0.00  0.00    +0.000 A 
ENDBRANCH   9  12
ENDBRANCH   3   9
ENDBRANCH   1   8
BRANCH   2  17
ATOM     17  N   UNL     1      23.008  42.042  47.031  0.00  0.00    +0.000 N 
ATOM     18  C   UNL     1      21.941  41.348  47.575  0.00  0.00    +0.000 C 
ATOM     19  O   UNL     1      21.929  40.134  47.740  0.00  0.00    +0.000 OA
ATOM     20  H   UNL     1      22.971  43.024  46.967  0.00  0.00    +0.000 HD
BRANCH  18  21
ATOM     21  C   UNL     1      20.781  42.248  47.957  0.00  0.00    +0.000 C 
BRANCH  21  22
ATOM     22  C   UNL     1      19.558  42.042  47.054  0.00  0.00    +0.000 C 
BRANCH  22  23
ATOM     23  C   UNL     1      18.972  43.332  46.476  0.00  0.00    +0.000 C 
BRANCH  23  24
ATOM     24  C   UNL     1      17.956  43.934  47.403  0.00  0.00    +0.000 C 
ATOM     25  O   UNL     1      18.243  44.760  48.258  0.00  0.00    +0.000 OA
ATOM     26  O   UNL     1      16.685  43.551  47.150  0.00  0.00    +0.000 OA
ENDBRANCH  23  24
ENDBRANCH  22  23
ENDBRANCH  21  22
ENDBRANCH  18  21
ENDBRANCH   2  17
BRANCH   2  27
ATOM     27  C   UNL     1      25.406  41.363  47.362  0.00  0.00    +0.000 C 
ATOM     28  O   UNL     1      26.434  40.802  46.999  0.00  0.00    +0.000 OA
ATOM     29  OXT UNL     1      25.360  42.098  48.491  0.00  0.00    +0.000 OA
ENDBRANCH   2  27
TORSDOF 9
ENDMDL
MODEL 6
REMARK VINA RESULT:      -7.2      3.007      7.641
REMARK  Name = 322755
REMARK  9 active torsions:
REMARK  status: ('A' for Active; 'I' for Inactive)
REMARK    1  A    between atoms: C_3  and  O_5
REMARK    2  A    between atoms: O_5  and  C_8
REMARK    3  A    between atoms: C_14  and  C_15
REMARK    4  A    between atoms: CA_16  and  N_17
REMARK    5  A    between atoms: CA_16  and  C_18
REMARK    6  A    between atoms: C_19  and  C_23
REMARK    7  A    between atoms: C_23  and  C_24
REMARK    8  A    between atoms: C_24  and  C_25
REMARK    9  A    between atoms: C_25  and  C_26
REMARK                            x       y       z     vdW  Elec       q    Type
REMARK                         _______ _______ _______ _____ _____    ______ ____
ROOT
ATOM      1  C   UNL     1      22.731  39.260  44.289  0.00  0.00    +0.000 C 
ATOM      2  CA  UNL     1      23.197  39.353  45.542  0.00  0.00    +0.000 C 
ENDROOT
BRANCH   1   8
ATOM      3  C   UNL     1      18.779  40.519  43.585  0.00  0.00    +0.000 A 
ATOM      4  C   UNL     1      19.032  39.151  43.673  0.00  0.00    +0.000 A 
ATOM      5  C   UNL     1      19.837  41.403  43.361  0.00  0.00    +0.000 A 
ATOM      6  C   UNL     1      20.355  38.700  43.797  0.00  0.00    +0.000 A 
ATOM      7  C   UNL     1      21.155  40.953  43.445  0.00  0.00    +0.000 A 
ATOM      8  C   UNL     1      21.412  39.613  43.758  0.00  0.00    +0.000 A 
BRANCH   3   9
ATOM      9  O   UNL     1      17.548  41.110  43.715  0.00  0.00    +0.000 OA
BRANCH   9  12
ATOM     10  I   UNL     1      16.704  39.239  46.685  0.00  0.00    +0.000 I 
ATOM     11  C   UNL     1      16.697  41.263  46.088  0.00  0.00    +0.000 A 
ATOM     12  C   UNL     1      17.154  41.770  44.860  0.00  0.00    +0.000 A 
ATOM     13  C   UNL     1      16.331  42.152  47.117  0.00  0.00    +0.000 A 
ATOM     14  C   UNL     1      17.381  43.156  44.763  0.00  0.00    +0.000 A 
ATOM     15  C   UNL     1      16.532  43.525  46.983  0.00  0.00    +0.000 A 
ATOM     16  C   UNL     1      17.093  44.024  45.817  0.00  0.00    +0.000 A 
ENDBRANCH   9  12
ENDBRANCH   3   9
ENDBRANCH   1   8
BRANCH   2  17
ATOM     17  N   UNL     1      22.508  40.003  46.555  0.00  0.00    +0.000 N 
ATOM     18  C   UNL     1      22.648  41.368  46.734  0.00  0.00    +0.000 C 
ATOM     19  O   UNL     1      23.321  42.087  46.005  0.00  0.00    +0.000 OA
ATOM     20  H   UNL     1      21.916  39.490  47.151  0.00  0.00    +0.000 HD
BRANCH  18  21
ATOM     21  C   UNL     1      21.873  41.893  47.928  0.00  0.00    +0.000 C 
BRANCH  21  22
ATOM     22  C   UNL     1      22.793  42.365  49.062  0.00  0.00    +0.000 C 
BRANCH  22  23
ATOM     23  C   UNL     1      24.075  41.546  49.220  0.00  0.00    +0.000 C 
BRANCH  23  24
ATOM     24  C   UNL     1      25.295  42.417  49.130  0.00  0.00    +0.000 C 
ATOM     25  O   UNL     1      25.971  42.510  48.115  0.00  0.00    +0.000 OA
ATOM     26  O   UNL     1      25.528  43.155  50.237  0.00  0.00    +0.000 OA
ENDBRANCH  23  24
ENDBRANCH  22  23
ENDBRANCH  21  22
ENDBRANCH  18  21
ENDBRANCH   2  17
BRANCH   2  27
ATOM     27  C   UNL     1      24.535  38.722  45.798  0.00  0.00    +0.000 C 
ATOM     28  O   UNL     1      24.725  37.511  45.841  0.00  0.00    +0.000 OA
ATOM     29  OXT UNL     1      25.549  39.603  45.912  0.00  0.00    +0.000 OA
ENDBRANCH   2  27
TORSDOF 9
ENDMDL
MODEL 7
REMARK VINA RESULT:      -7.1      3.053      7.683
REMARK  Name = 322755
REMARK  9 active torsions:
REMARK  status: ('A' for Active; 'I' for Inactive)
REMARK    1  A    between atoms: C_3  and  O_5
REMARK    2  A    between atoms: O_5  and  C_8
REMARK    3  A    between atoms: C_14  and  C_15
REMARK    4  A    between atoms: CA_16  and  N_17
REMARK    5  A    between atoms: CA_16  and  C_18
REMARK    6  A    between atoms: C_19  and  C_23
REMARK    7  A    between atoms: C_23  and  C_24
REMARK    8  A    between atoms: C_24  and  C_25
REMARK    9  A    between atoms: C_25  and  C_26
REMARK                            x       y       z     vdW  Elec       q    Type
REMARK                         _______ _______ _______ _____ _____    ______ ____
ROOT
ATOM      1  C   UNL     1      22.482  42.317  48.770  0.00  0.00    +0.000 C 
ATOM      2  CA  UNL     1      23.777  42.192  48.449  0.00  0.00    +0.000 C 
ENDROOT
BRANCH   1   8
ATOM      3  C   UNL     1      18.730  41.720  46.963  0.00  0.00    +0.000 A 
ATOM      4  C   UNL     1      19.798  40.922  46.551  0.00  0.00    +0.000 A 
ATOM      5  C   UNL     1      18.982  42.904  47.659  0.00  0.00    +0.000 A 
ATOM      6  C   UNL     1      21.082  41.174  47.057  0.00  0.00    +0.000 A 
ATOM      7  C   UNL     1      20.266  43.179  48.131  0.00  0.00    +0.000 A 
ATOM      8  C   UNL     1      21.299  42.261  47.908  0.00  0.00    +0.000 A 
BRANCH   3   9
ATOM      9  O   UNL     1      17.404  41.439  46.757  0.00  0.00    +0.000 OA
BRANCH   9  12
ATOM     10  I   UNL     1      17.559  40.913  43.189  0.00  0.00    +0.000 I 
ATOM     11  C   UNL     1      16.847  39.855  44.871  0.00  0.00    +0.000 A 
ATOM     12  C   UNL     1      16.968  40.249  46.214  0.00  0.00    +0.000 A 
ATOM     13  C   UNL     1      16.352  38.573  44.561  0.00  0.00    +0.000 A 
ATOM     14  C   UNL     1      16.738  39.279  47.208  0.00  0.00    +0.000 A 
ATOM     15  C   UNL     1      16.096  37.642  45.566  0.00  0.00    +0.000 A 
ATOM     16  C   UNL     1      16.325  37.984  46.891  0.00  0.00    +0.000 A 
ENDBRANCH   9  12
ENDBRANCH   3   9
ENDBRANCH   1   8
BRANCH   2  17
ATOM     17  N   UNL     1      24.205  41.792  47.192  0.00  0.00    +0.000 N 
ATOM     18  C   UNL     1      24.410  40.452  46.914  0.00  0.00    +0.000 C 
ATOM     19  O   UNL     1      24.182  39.547  47.709  0.00  0.00    +0.000 OA
ATOM     20  H   UNL     1      24.366  42.466  46.493  0.00  0.00    +0.000 HD
BRANCH  18  21
ATOM     21  C   UNL     1      24.940  40.210  45.513  0.00  0.00    +0.000 C 
BRANCH  21  22
ATOM     22  C   UNL     1      23.862  40.402  44.439  0.00  0.00    +0.000 C 
BRANCH  22  23
ATOM     23  C   UNL     1      22.892  39.228  44.297  0.00  0.00    +0.000 C 
BRANCH  23  24
ATOM     24  C   UNL     1      21.569  39.676  43.744  0.00  0.00    +0.000 C 
ATOM     25  O   UNL     1      20.574  38.965  43.744  0.00  0.00    +0.000 OA
ATOM     26  O   UNL     1      21.552  40.961  43.328  0.00  0.00    +0.000 OA
ENDBRANCH  23  24
ENDBRANCH  22  23
ENDBRANCH  21  22
ENDBRANCH  18  21
ENDBRANCH   2  17
BRANCH   2  27
ATOM     27  C   UNL     1      24.761  42.495  49.542  0.00  0.00    +0.000 C 
ATOM     28  O   UNL     1      25.968  42.612  49.364  0.00  0.00    +0.000 OA
ATOM     29  OXT UNL     1      24.199  42.701  50.750  0.00  0.00    +0.000 OA
ENDBRANCH   2  27
TORSDOF 9
ENDMDL
MODEL 8
REMARK VINA RESULT:      -6.7      3.034      7.203
REMARK  Name = 322755
REMARK  9 active torsions:
REMARK  status: ('A' for Active; 'I' for Inactive)
REMARK    1  A    between atoms: C_3  and  O_5
REMARK    2  A    between atoms: O_5  and  C_8
REMARK    3  A    between atoms: C_14  and  C_15
REMARK    4  A    between atoms: CA_16  and  N_17
REMARK    5  A    between atoms: CA_16  and  C_18
REMARK    6  A    between atoms: C_19  and  C_23
REMARK    7  A    between atoms: C_23  and  C_24
REMARK    8  A    between atoms: C_24  and  C_25
REMARK    9  A    between atoms: C_25  and  C_26
REMARK                            x       y       z     vdW  Elec       q    Type
REMARK                         _______ _______ _______ _____ _____    ______ ____
ROOT
ATOM      1  C   UNL     1      23.233  40.505  44.618  0.00  0.00    +0.000 C 
ATOM      2  CA  UNL     1      23.502  40.737  45.910  0.00  0.00    +0.000 C 
ENDROOT
BRANCH   1   8
ATOM      3  C   UNL     1      19.213  39.871  43.549  0.00  0.00    +0.000 A 
ATOM      4  C   UNL     1      20.064  38.768  43.613  0.00  0.00    +0.000 A 
ATOM      5  C   UNL     1      19.755  41.156  43.472  0.00  0.00    +0.000 A 
ATOM      6  C   UNL     1      21.431  38.963  43.858  0.00  0.00    +0.000 A 
ATOM      7  C   UNL     1      21.122  41.353  43.677  0.00  0.00    +0.000 A 
ATOM      8  C   UNL     1      21.945  40.258  43.964  0.00  0.00    +0.000 A 
BRANCH   3   9
ATOM      9  O   UNL     1      17.843  39.821  43.572  0.00  0.00    +0.000 OA
BRANCH   9  12
ATOM     10  I   UNL     1      17.274  36.406  44.595  0.00  0.00    +0.000 I 
ATOM     11  C   UNL     1      16.704  38.326  45.259  0.00  0.00    +0.000 A 
ATOM     12  C   UNL     1      17.125  39.552  44.718  0.00  0.00    +0.000 A 
ATOM     13  C   UNL     1      15.954  38.309  46.451  0.00  0.00    +0.000 A 
ATOM     14  C   UNL     1      16.914  40.716  45.482  0.00  0.00    +0.000 A 
ATOM     15  C   UNL     1      15.727  39.480  47.171  0.00  0.00    +0.000 A 
ATOM     16  C   UNL     1      16.241  40.682  46.704  0.00  0.00    +0.000 A 
ENDBRANCH   9  12
ENDBRANCH   3   9
ENDBRANCH   1   8
BRANCH   2  17
ATOM     17  N   UNL     1      22.513  40.965  46.855  0.00  0.00    +0.000 N 
ATOM     18  C   UNL     1      21.903  42.204  46.947  0.00  0.00    +0.000 C 
ATOM     19  O   UNL     1      22.141  43.140  46.192  0.00  0.00    +0.000 OA
ATOM     20  H   UNL     1      22.243  40.241  47.465  0.00  0.00    +0.000 HD
BRANCH  18  21
ATOM     21  C   UNL     1      20.896  42.287  48.078  0.00  0.00    +0.000 C 
BRANCH  21  22
ATOM     22  C   UNL     1      19.451  42.123  47.589  0.00  0.00    +0.000 C 
BRANCH  22  23
ATOM     23  C   UNL     1      18.966  43.237  46.660  0.00  0.00    +0.000 C 
BRANCH  23  24
ATOM     24  C   UNL     1      17.879  44.051  47.303  0.00  0.00    +0.000 C 
ATOM     25  O   UNL     1      16.690  43.796  47.169  0.00  0.00    +0.000 OA
ATOM     26  O   UNL     1      18.332  45.033  48.114  0.00  0.00    +0.000 OA
ENDBRANCH  23  24
ENDBRANCH  22  23
ENDBRANCH  21  22
ENDBRANCH  18  21
ENDBRANCH   2  17
BRANCH   2  27
ATOM     27  C   UNL     1      24.954  40.756  46.290  0.00  0.00    +0.000 C 
ATOM     28  O   UNL     1      25.788  39.971  45.851  0.00  0.00    +0.000 OA
ATOM     29  OXT UNL     1      25.296  41.766  47.116  0.00  0.00    +0.000 OA
ENDBRANCH   2  27
TORSDOF 9
ENDMDL
MODEL 9
REMARK VINA RESULT:      -6.4      2.085      4.125
REMARK  Name = 322755
REMARK  9 active torsions:
REMARK  status: ('A' for Active; 'I' for Inactive)
REMARK    1  A    between atoms: C_3  and  O_5
REMARK    2  A    between atoms: O_5  and  C_8
REMARK    3  A    between atoms: C_14  and  C_15
REMARK    4  A    between atoms: CA_16  and  N_17
REMARK    5  A    between atoms: CA_16  and  C_18
REMARK    6  A    between atoms: C_19  and  C_23
REMARK    7  A    between atoms: C_23  and  C_24
REMARK    8  A    between atoms: C_24  and  C_25
REMARK    9  A    between atoms: C_25  and  C_26
REMARK                            x       y       z     vdW  Elec       q    Type
REMARK                         _______ _______ _______ _____ _____    ______ ____
ROOT
ATOM      1  C   UNL     1      17.682  39.928  47.000  0.00  0.00    +0.000 C 
ATOM      2  CA  UNL     1      16.741  39.742  46.064  0.00  0.00    +0.000 C 
ENDROOT
BRANCH   1   8
ATOM      3  C   UNL     1      21.265  42.022  47.692  0.00  0.00    +0.000 A 
ATOM      4  C   UNL     1      20.060  42.718  47.793  0.00  0.00    +0.000 A 
ATOM      5  C   UNL     1      21.298  40.796  47.025  0.00  0.00    +0.000 A 
ATOM      6  C   UNL     1      18.860  42.073  47.460  0.00  0.00    +0.000 A 
ATOM      7  C   UNL     1      20.108  40.166  46.656  0.00  0.00    +0.000 A 
ATOM      8  C   UNL     1      18.882  40.767  46.961  0.00  0.00    +0.000 A 
BRANCH   3   9
ATOM      9  O   UNL     1      22.465  42.430  48.215  0.00  0.00    +0.000 OA
BRANCH   9  12
ATOM     10  I   UNL     1      25.416  42.815  50.259  0.00  0.00    +0.000 I 
ATOM     11  C   UNL     1      24.956  42.039  48.351  0.00  0.00    +0.000 A 
ATOM     12  C   UNL     1      23.676  41.931  47.783  0.00  0.00    +0.000 A 
ATOM     13  C   UNL     1      26.059  41.450  47.703  0.00  0.00    +0.000 A 
ATOM     14  C   UNL     1      23.521  41.097  46.660  0.00  0.00    +0.000 A 
ATOM     15  C   UNL     1      25.885  40.656  46.570  0.00  0.00    +0.000 A 
ATOM     16  C   UNL     1      24.607  40.449  46.070  0.00  0.00    +0.000 A 
ENDBRANCH   9  12
ENDBRANCH   3   9
ENDBRANCH   1   8
BRANCH   2  17
ATOM     17  N   UNL     1      16.670  40.504  44.908  0.00  0.00    +0.000 N 
ATOM     18  C   UNL     1      17.279  40.069  43.744  0.00  0.00    +0.000 C 
ATOM     19  O   UNL     1      17.857  38.993  43.635  0.00  0.00    +0.000 OA
ATOM     20  H   UNL     1      16.184  41.360  44.915  0.00  0.00    +0.000 HD
BRANCH  18  21
ATOM     21  C   UNL     1      17.154  41.061  42.602  0.00  0.00    +0.000 C 
BRANCH  21  22
ATOM     22  C   UNL     1      17.648  42.461  42.986  0.00  0.00    +0.000 C 
BRANCH  22  23
ATOM     23  C   UNL     1      19.082  42.769  42.551  0.00  0.00    +0.000 C 
BRANCH  23  24
ATOM     24  C   UNL     1      20.079  42.226  43.534  0.00  0.00    +0.000 C 
ATOM     25  O   UNL     1      20.610  41.131  43.406  0.00  0.00    +0.000 OA
ATOM     26  O   UNL     1      20.406  43.088  44.521  0.00  0.00    +0.000 OA
ENDBRANCH  23  24
ENDBRANCH  22  23
ENDBRANCH  21  22
ENDBRANCH  18  21
ENDBRANCH   2  17
BRANCH   2  27
ATOM     27  C   UNL     1      15.738  38.660  46.341  0.00  0.00    +0.000 C 
ATOM     28  O   UNL     1      15.730  37.572  45.777  0.00  0.00    +0.000 OA
ATOM     29  OXT UNL     1      14.866  38.954  47.328  0.00  0.00    +0.000 OA
ENDBRANCH   2  27
TORSDOF 9
ENDMDL
