MODEL 1
REMARK VINA RESULT:      -9.1      0.000      0.000
REMARK  Name = 321584
REMARK  7 active torsions:
REMARK  status: ('A' for Active; 'I' for Inactive)
REMARK    1  A    between atoms: C_3  and  O_5
REMARK    2  A    between atoms: O_5  and  C_8
REMARK    3  A    between atoms: C_14  and  C_15
REMARK    4  A    between atoms: CA_16  and  N_17
REMARK    5  A    between atoms: CA_16  and  C_18
REMARK    6  A    between atoms: C_19  and  C_23
REMARK    7  A    between atoms: C_23  and  C_24
REMARK                            x       y       z     vdW  Elec       q    Type
REMARK                         _______ _______ _______ _____ _____    ______ ____
ROOT
ATOM      1  C   UNL     1      20.345  42.141  43.601  0.00  0.00    +0.000 C 
ATOM      2  CA  UNL     1      18.998  42.148  43.568  0.00  0.00    +0.000 C 
ENDROOT
BRANCH   1   8
ATOM      3  C   UNL     1      22.622  41.050  47.002  0.00  0.00    +0.000 A 
ATOM      4  C   UNL     1      22.175  42.363  46.873  0.00  0.00    +0.000 A 
ATOM      5  C   UNL     1      22.538  40.171  45.916  0.00  0.00    +0.000 A 
ATOM      6  C   UNL     1      21.501  42.753  45.715  0.00  0.00    +0.000 A 
ATOM      7  C   UNL     1      21.848  40.555  44.766  0.00  0.00    +0.000 A 
ATOM      8  C   UNL     1      21.292  41.837  44.673  0.00  0.00    +0.000 A 
BRANCH   3   9
ATOM      9  O   UNL     1      23.114  40.664  48.231  0.00  0.00    +0.000 OA
BRANCH   9  12
ATOM     10 BR   UNL     1      25.866  40.632  46.847  0.00  0.00    +0.000 Br
ATOM     11  C   UNL     1      25.316  41.582  48.395  0.00  0.00    +0.000 A 
ATOM     12  C   UNL     1      24.004  41.509  48.873  0.00  0.00    +0.000 A 
ATOM     13  C   UNL     1      26.265  42.372  49.054  0.00  0.00    +0.000 A 
ATOM     14  C   UNL     1      23.637  42.309  49.967  0.00  0.00    +0.000 A 
ATOM     15  C   UNL     1      25.906  43.103  50.187  0.00  0.00    +0.000 A 
ATOM     16  C   UNL     1      24.589  43.081  50.636  0.00  0.00    +0.000 A 
ENDBRANCH   9  12
ENDBRANCH   3   9
ENDBRANCH   1   8
BRANCH   2  17
ATOM     17  N   UNL     1      18.086  41.753  44.529  0.00  0.00    +0.000 N 
ATOM     18  C   UNL     1      17.573  42.490  45.581  0.00  0.00    +0.000 C 
ATOM     19  O   UNL     1      17.976  43.593  45.939  0.00  0.00    +0.000 OA
ATOM     20  H   UNL     1      17.758  40.828  44.455  0.00  0.00    +0.000 HD
BRANCH  18  21
ATOM     21  C   UNL     1      16.504  41.756  46.378  0.00  0.00    +0.000 C 
BRANCH  21  22
ATOM     22  C   UNL     1      16.494  40.265  46.124  0.00  0.00    +0.000 A 
ATOM     23  C   UNL     1      16.811  39.753  44.854  0.00  0.00    +0.000 A 
ATOM     24  C   UNL     1      16.232  39.365  47.168  0.00  0.00    +0.000 A 
ATOM     25  C   UNL     1      16.850  38.374  44.629  0.00  0.00    +0.000 A 
ATOM     26  C   UNL     1      16.278  37.986  46.943  0.00  0.00    +0.000 A 
ATOM     27  C   UNL     1      16.586  37.496  45.675  0.00  0.00    +0.000 A 
ATOM     28 CL   UNL     1      16.654  35.799  45.406  0.00  0.00    +0.000 Cl
ENDBRANCH  21  22
ENDBRANCH  18  21
ENDBRANCH   2  17
BRANCH   2  29
ATOM     29  C   UNL     1      18.427  42.733  42.302  0.00  0.00    +0.000 C 
ATOM     30  O   UNL     1      18.768  43.789  41.795  0.00  0.00    +0.000 OA
ATOM     31  OXT UNL     1      17.443  41.949  41.803  0.00  0.00    +0.000 OA
ENDBRANCH   2  29
TORSDOF 7
ENDMDL
MODEL 2
REMARK VINA RESULT:      -8.1      3.338      6.968
REMARK  Name = 321584
REMARK  7 active torsions:
REMARK  status: ('A' for Active; 'I' for Inactive)
REMARK    1  A    between atoms: C_3  and  O_5
REMARK    2  A    between atoms: O_5  and  C_8
REMARK    3  A    between atoms: C_14  and  C_15
REMARK    4  A    between atoms: CA_16  and  N_17
REMARK    5  A    between atoms: CA_16  and  C_18
REMARK    6  A    between atoms: C_19  and  C_23
REMARK    7  A    between atoms: C_23  and  C_24
REMARK                            x       y       z     vdW  Elec       q    Type
REMARK                         _______ _______ _______ _____ _____    ______ ____
ROOT
ATOM      1  C   UNL     1      24.306  40.639  45.672  0.00  0.00    +0.000 C 
ATOM      2  CA  UNL     1      24.229  41.367  46.803  0.00  0.00    +0.000 C 
ENDROOT
BRANCH   1   8
ATOM      3  C   UNL     1      20.955  39.447  43.371  0.00  0.00    +0.000 A 
ATOM      4  C   UNL     1      21.724  38.477  44.010  0.00  0.00    +0.000 A 
ATOM      5  C   UNL     1      21.421  40.764  43.282  0.00  0.00    +0.000 A 
ATOM      6  C   UNL     1      22.880  38.853  44.697  0.00  0.00    +0.000 A 
ATOM      7  C   UNL     1      22.567  41.143  43.984  0.00  0.00    +0.000 A 
ATOM      8  C   UNL     1      23.283  40.196  44.726  0.00  0.00    +0.000 A 
BRANCH   3   9
ATOM      9  O   UNL     1      19.731  39.059  42.868  0.00  0.00    +0.000 OA
BRANCH   9  12
ATOM     10 BR   UNL     1      17.927  41.538  42.557  0.00  0.00    +0.000 Br
ATOM     11  C   UNL     1      17.756  40.076  43.755  0.00  0.00    +0.000 A 
ATOM     12  C   UNL     1      18.656  39.004  43.739  0.00  0.00    +0.000 A 
ATOM     13  C   UNL     1      16.693  40.092  44.666  0.00  0.00    +0.000 A 
ATOM     14  C   UNL     1      18.419  37.910  44.587  0.00  0.00    +0.000 A 
ATOM     15  C   UNL     1      16.515  39.032  45.556  0.00  0.00    +0.000 A 
ATOM     16  C   UNL     1      17.371  37.936  45.508  0.00  0.00    +0.000 A 
ENDBRANCH   9  12
ENDBRANCH   3   9
ENDBRANCH   1   8
BRANCH   2  17
ATOM     17  N   UNL     1      23.148  42.022  47.364  0.00  0.00    +0.000 N 
ATOM     18  C   UNL     1      21.964  41.480  47.830  0.00  0.00    +0.000 C 
ATOM     19  O   UNL     1      21.602  40.318  47.672  0.00  0.00    +0.000 OA
ATOM     20  H   UNL     1      23.232  42.999  47.442  0.00  0.00    +0.000 HD
BRANCH  18  21
ATOM     21  C   UNL     1      21.040  42.501  48.482  0.00  0.00    +0.000 C 
BRANCH  21  22
ATOM     22  C   UNL     1      19.875  42.894  47.602  0.00  0.00    +0.000 A 
ATOM     23  C   UNL     1      20.005  42.900  46.203  0.00  0.00    +0.000 A 
ATOM     24  C   UNL     1      18.627  43.196  48.165  0.00  0.00    +0.000 A 
ATOM     25  C   UNL     1      18.916  43.215  45.385  0.00  0.00    +0.000 A 
ATOM     26  C   UNL     1      17.536  43.506  47.346  0.00  0.00    +0.000 A 
ATOM     27  C   UNL     1      17.685  43.515  45.960  0.00  0.00    +0.000 A 
ATOM     28 CL   UNL     1      16.338  43.883  44.956  0.00  0.00    +0.000 Cl
ENDBRANCH  21  22
ENDBRANCH  18  21
ENDBRANCH   2  17
BRANCH   2  29
ATOM     29  C   UNL     1      25.516  41.408  47.585  0.00  0.00    +0.000 C 
ATOM     30  O   UNL     1      26.556  40.857  47.264  0.00  0.00    +0.000 OA
ATOM     31  OXT UNL     1      25.369  42.113  48.731  0.00  0.00    +0.000 OA
ENDBRANCH   2  29
TORSDOF 7
ENDMDL
MODEL 3
REMARK VINA RESULT:      -8.0      3.399      7.006
REMARK  Name = 321584
REMARK  7 active torsions:
REMARK  status: ('A' for Active; 'I' for Inactive)
REMARK    1  A    between atoms: C_3  and  O_5
REMARK    2  A    between atoms: O_5  and  C_8
REMARK    3  A    between atoms: C_14  and  C_15
REMARK    4  A    between atoms: CA_16  and  N_17
REMARK    5  A    between atoms: CA_16  and  C_18
REMARK    6  A    between atoms: C_19  and  C_23
REMARK    7  A    between atoms: C_23  and  C_24
REMARK                            x       y       z     vdW  Elec       q    Type
REMARK                         _______ _______ _______ _____ _____    ______ ____
ROOT
ATOM      1  C   UNL     1      23.269  40.242  44.228  0.00  0.00    +0.000 C 
ATOM      2  CA  UNL     1      23.752  40.883  45.311  0.00  0.00    +0.000 C 
ENDROOT
BRANCH   1   8
ATOM      3  C   UNL     1      19.149  39.566  43.510  0.00  0.00    +0.000 A 
ATOM      4  C   UNL     1      19.975  38.487  43.817  0.00  0.00    +0.000 A 
ATOM      5  C   UNL     1      19.710  40.810  43.198  0.00  0.00    +0.000 A 
ATOM      6  C   UNL     1      21.348  38.687  43.968  0.00  0.00    +0.000 A 
ATOM      7  C   UNL     1      21.080  41.014  43.367  0.00  0.00    +0.000 A 
ATOM      8  C   UNL     1      21.903  39.963  43.789  0.00  0.00    +0.000 A 
BRANCH   3   9
ATOM      9  O   UNL     1      17.787  39.358  43.555  0.00  0.00    +0.000 OA
BRANCH   9  12
ATOM     10 BR   UNL     1      17.167  36.506  44.545  0.00  0.00    +0.000 Br
ATOM     11  C   UNL     1      16.775  38.171  45.368  0.00  0.00    +0.000 A 
ATOM     12  C   UNL     1      17.163  39.385  44.791  0.00  0.00    +0.000 A 
ATOM     13  C   UNL     1      16.082  38.157  46.585  0.00  0.00    +0.000 A 
ATOM     14  C   UNL     1      16.926  40.575  45.496  0.00  0.00    +0.000 A 
ATOM     15  C   UNL     1      15.785  39.353  47.237  0.00  0.00    +0.000 A 
ATOM     16  C   UNL     1      16.217  40.562  46.700  0.00  0.00    +0.000 A 
ENDBRANCH   9  12
ENDBRANCH   3   9
ENDBRANCH   1   8
BRANCH   2  17
ATOM     17  N   UNL     1      23.082  41.581  46.298  0.00  0.00    +0.000 N 
ATOM     18  C   UNL     1      22.608  41.113  47.510  0.00  0.00    +0.000 C 
ATOM     19  O   UNL     1      22.559  39.934  47.847  0.00  0.00    +0.000 OA
ATOM     20  H   UNL     1      22.923  42.536  46.115  0.00  0.00    +0.000 HD
BRANCH  18  21
ATOM     21  C   UNL     1      22.011  42.201  48.394  0.00  0.00    +0.000 C 
BRANCH  21  22
ATOM     22  C   UNL     1      20.676  42.705  47.893  0.00  0.00    +0.000 A 
ATOM     23  C   UNL     1      20.458  42.914  46.521  0.00  0.00    +0.000 A 
ATOM     24  C   UNL     1      19.612  42.912  48.784  0.00  0.00    +0.000 A 
ATOM     25  C   UNL     1      19.211  43.333  46.051  0.00  0.00    +0.000 A 
ATOM     26  C   UNL     1      18.362  43.326  48.313  0.00  0.00    +0.000 A 
ATOM     27  C   UNL     1      18.167  43.535  46.949  0.00  0.00    +0.000 A 
ATOM     28 CL   UNL     1      16.625  44.031  46.371  0.00  0.00    +0.000 Cl
ENDBRANCH  21  22
ENDBRANCH  18  21
ENDBRANCH   2  17
BRANCH   2  29
ATOM     29  C   UNL     1      25.243  40.753  45.475  0.00  0.00    +0.000 C 
ATOM     30  O   UNL     1      25.811  40.340  46.473  0.00  0.00    +0.000 OA
ATOM     31  OXT UNL     1      25.896  41.192  44.374  0.00  0.00    +0.000 OA
ENDBRANCH   2  29
TORSDOF 7
ENDMDL
MODEL 4
REMARK VINA RESULT:      -7.9      3.256      7.884
REMARK  Name = 321584
REMARK  7 active torsions:
REMARK  status: ('A' for Active; 'I' for Inactive)
REMARK    1  A    between atoms: C_3  and  O_5
REMARK    2  A    between atoms: O_5  and  C_8
REMARK    3  A    between atoms: C_14  and  C_15
REMARK    4  A    between atoms: CA_16  and  N_17
REMARK    5  A    between atoms: CA_16  and  C_18
REMARK    6  A    between atoms: C_19  and  C_23
REMARK    7  A    between atoms: C_23  and  C_24
REMARK                            x       y       z     vdW  Elec       q    Type
REMARK                         _______ _______ _______ _____ _____    ______ ____
ROOT
ATOM      1  C   UNL     1      22.346  42.419  48.969  0.00  0.00    +0.000 C 
ATOM      2  CA  UNL     1      23.647  42.190  48.704  0.00  0.00    +0.000 C 
ENDROOT
BRANCH   1   8
ATOM      3  C   UNL     1      18.674  41.458  47.088  0.00  0.00    +0.000 A 
ATOM      4  C   UNL     1      19.829  40.773  46.719  0.00  0.00    +0.000 A 
ATOM      5  C   UNL     1      18.764  42.609  47.879  0.00  0.00    +0.000 A 
ATOM      6  C   UNL     1      21.058  41.143  47.269  0.00  0.00    +0.000 A 
ATOM      7  C   UNL     1      19.990  42.968  48.443  0.00  0.00    +0.000 A 
ATOM      8  C   UNL     1      21.138  42.214  48.171  0.00  0.00    +0.000 A 
BRANCH   3   9
ATOM      9  O   UNL     1      17.467  40.941  46.667  0.00  0.00    +0.000 OA
BRANCH   9  12
ATOM     10 BR   UNL     1      16.917  38.116  45.566  0.00  0.00    +0.000 Br
ATOM     11  C   UNL     1      16.939  39.776  44.646  0.00  0.00    +0.000 A 
ATOM     12  C   UNL     1      17.175  40.983  45.314  0.00  0.00    +0.000 A 
ATOM     13  C   UNL     1      16.707  39.767  43.265  0.00  0.00    +0.000 A 
ATOM     14  C   UNL     1      17.085  42.184  44.592  0.00  0.00    +0.000 A 
ATOM     15  C   UNL     1      16.696  40.963  42.547  0.00  0.00    +0.000 A 
ATOM     16  C   UNL     1      16.873  42.172  43.212  0.00  0.00    +0.000 A 
ENDBRANCH   9  12
ENDBRANCH   3   9
ENDBRANCH   1   8
BRANCH   2  17
ATOM     17  N   UNL     1      24.235  41.576  47.613  0.00  0.00    +0.000 N 
ATOM     18  C   UNL     1      25.464  40.947  47.540  0.00  0.00    +0.000 C 
ATOM     19  O   UNL     1      26.329  40.972  48.411  0.00  0.00    +0.000 OA
ATOM     20  H   UNL     1      23.708  41.587  46.781  0.00  0.00    +0.000 HD
BRANCH  18  21
ATOM     21  C   UNL     1      25.734  40.289  46.194  0.00  0.00    +0.000 C 
BRANCH  21  22
ATOM     22  C   UNL     1      24.474  40.009  45.407  0.00  0.00    +0.000 A 
ATOM     23  C   UNL     1      23.825  38.767  45.511  0.00  0.00    +0.000 A 
ATOM     24  C   UNL     1      23.895  41.008  44.609  0.00  0.00    +0.000 A 
ATOM     25  C   UNL     1      22.633  38.523  44.822  0.00  0.00    +0.000 A 
ATOM     26  C   UNL     1      22.700  40.765  43.925  0.00  0.00    +0.000 A 
ATOM     27  C   UNL     1      22.074  39.524  44.034  0.00  0.00    +0.000 A 
ATOM     28 CL   UNL     1      20.597  39.234  43.203  0.00  0.00    +0.000 Cl
ENDBRANCH  21  22
ENDBRANCH  18  21
ENDBRANCH   2  17
BRANCH   2  29
ATOM     29  C   UNL     1      24.583  42.751  49.742  0.00  0.00    +0.000 C 
ATOM     30  O   UNL     1      25.561  43.444  49.513  0.00  0.00    +0.000 OA
ATOM     31  OXT UNL     1      24.225  42.356  50.986  0.00  0.00    +0.000 OA
ENDBRANCH   2  29
TORSDOF 7
ENDMDL
MODEL 5
REMARK VINA RESULT:      -7.4      3.342      6.852
REMARK  Name = 321584
REMARK  7 active torsions:
REMARK  status: ('A' for Active; 'I' for Inactive)
REMARK    1  A    between atoms: C_3  and  O_5
REMARK    2  A    between atoms: O_5  and  C_8
REMARK    3  A    between atoms: C_14  and  C_15
REMARK    4  A    between atoms: CA_16  and  N_17
REMARK    5  A    between atoms: CA_16  and  C_18
REMARK    6  A    between atoms: C_19  and  C_23
REMARK    7  A    between atoms: C_23  and  C_24
REMARK                            x       y       z     vdW  Elec       q    Type
REMARK                         _______ _______ _______ _____ _____    ______ ____
ROOT
ATOM      1  C   UNL     1      25.385  40.855  46.902  0.00  0.00    +0.000 C 
ATOM      2  CA  UNL     1      25.110  41.553  48.022  0.00  0.00    +0.000 C 
ENDROOT
BRANCH   1   8
ATOM      3  C   UNL     1      22.462  39.372  44.219  0.00  0.00    +0.000 A 
ATOM      4  C   UNL     1      22.635  38.748  45.452  0.00  0.00    +0.000 A 
ATOM      5  C   UNL     1      23.400  40.309  43.770  0.00  0.00    +0.000 A 
ATOM      6  C   UNL     1      23.655  39.174  46.305  0.00  0.00    +0.000 A 
ATOM      7  C   UNL     1      24.408  40.748  44.630  0.00  0.00    +0.000 A 
ATOM      8  C   UNL     1      24.519  40.209  45.918  0.00  0.00    +0.000 A 
BRANCH   3   9
ATOM      9  O   UNL     1      21.335  39.047  43.495  0.00  0.00    +0.000 OA
BRANCH   9  12
ATOM     10 BR   UNL     1      18.549  37.802  43.923  0.00  0.00    +0.000 Br
ATOM     11  C   UNL     1      19.006  39.595  43.501  0.00  0.00    +0.000 A 
ATOM     12  C   UNL     1      20.339  40.002  43.375  0.00  0.00    +0.000 A 
ATOM     13  C   UNL     1      17.966  40.515  43.321  0.00  0.00    +0.000 A 
ATOM     14  C   UNL     1      20.612  41.362  43.155  0.00  0.00    +0.000 A 
ATOM     15  C   UNL     1      18.252  41.849  43.026  0.00  0.00    +0.000 A 
ATOM     16  C   UNL     1      19.575  42.275  42.955  0.00  0.00    +0.000 A 
ENDBRANCH   9  12
ENDBRANCH   3   9
ENDBRANCH   1   8
BRANCH   2  17
ATOM     17  N   UNL     1      23.892  41.970  48.528  0.00  0.00    +0.000 N 
ATOM     18  C   UNL     1      22.771  42.387  47.834  0.00  0.00    +0.000 C 
ATOM     19  O   UNL     1      22.724  42.616  46.629  0.00  0.00    +0.000 OA
ATOM     20  H   UNL     1      23.814  41.969  49.509  0.00  0.00    +0.000 HD
BRANCH  18  21
ATOM     21  C   UNL     1      21.571  42.673  48.728  0.00  0.00    +0.000 C 
BRANCH  21  22
ATOM     22  C   UNL     1      20.254  42.289  48.091  0.00  0.00    +0.000 A 
ATOM     23  C   UNL     1      19.183  43.198  48.059  0.00  0.00    +0.000 A 
ATOM     24  C   UNL     1      20.101  41.043  47.466  0.00  0.00    +0.000 A 
ATOM     25  C   UNL     1      17.981  42.865  47.430  0.00  0.00    +0.000 A 
ATOM     26  C   UNL     1      18.899  40.712  46.830  0.00  0.00    +0.000 A 
ATOM     27  C   UNL     1      17.845  41.624  46.815  0.00  0.00    +0.000 A 
ATOM     28 CL   UNL     1      16.375  41.218  46.021  0.00  0.00    +0.000 Cl
ENDBRANCH  21  22
ENDBRANCH  18  21
ENDBRANCH   2  17
BRANCH   2  29
ATOM     29  C   UNL     1      26.325  41.859  48.858  0.00  0.00    +0.000 C 
ATOM     30  O   UNL     1      27.416  41.328  48.741  0.00  0.00    +0.000 OA
ATOM     31  OXT UNL     1      26.045  42.789  49.801  0.00  0.00    +0.000 OA
ENDBRANCH   2  29
TORSDOF 7
ENDMDL
MODEL 6
REMARK VINA RESULT:      -7.3      3.067      7.811
REMARK  Name = 321584
REMARK  7 active torsions:
REMARK  status: ('A' for Active; 'I' for Inactive)
REMARK    1  A    between atoms: C_3  and  O_5
REMARK    2  A    between atoms: O_5  and  C_8
REMARK    3  A    between atoms: C_14  and  C_15
REMARK    4  A    between atoms: CA_16  and  N_17
REMARK    5  A    between atoms: CA_16  and  C_18
REMARK    6  A    between atoms: C_19  and  C_23
REMARK    7  A    between atoms: C_23  and  C_24
REMARK                            x       y       z     vdW  Elec       q    Type
REMARK                         _______ _______ _______ _____ _____    ______ ____
ROOT
ATOM      1  C   UNL     1      21.998  42.528  48.921  0.00  0.00    +0.000 C 
ATOM      2  CA  UNL     1      23.289  42.153  48.831  0.00  0.00    +0.000 C 
ENDROOT
BRANCH   1   8
ATOM      3  C   UNL     1      18.594  42.089  46.438  0.00  0.00    +0.000 A 
ATOM      4  C   UNL     1      19.757  41.384  46.134  0.00  0.00    +0.000 A 
ATOM      5  C   UNL     1      18.624  43.110  47.395  0.00  0.00    +0.000 A 
ATOM      6  C   UNL     1      20.909  41.590  46.894  0.00  0.00    +0.000 A 
ATOM      7  C   UNL     1      19.771  43.303  48.167  0.00  0.00    +0.000 A 
ATOM      8  C   UNL     1      20.909  42.518  47.946  0.00  0.00    +0.000 A 
BRANCH   3   9
ATOM      9  O   UNL     1      17.437  41.719  45.786  0.00  0.00    +0.000 OA
BRANCH   9  12
ATOM     10 BR   UNL     1      17.455  40.419  42.992  0.00  0.00    +0.000 Br
ATOM     11  C   UNL     1      16.961  39.662  44.661  0.00  0.00    +0.000 A 
ATOM     12  C   UNL     1      17.047  40.392  45.852  0.00  0.00    +0.000 A 
ATOM     13  C   UNL     1      16.507  38.338  44.674  0.00  0.00    +0.000 A 
ATOM     14  C   UNL     1      16.756  39.744  47.063  0.00  0.00    +0.000 A 
ATOM     15  C   UNL     1      16.148  37.731  45.878  0.00  0.00    +0.000 A 
ATOM     16  C   UNL     1      16.284  38.430  47.074  0.00  0.00    +0.000 A 
ENDBRANCH   9  12
ENDBRANCH   3   9
ENDBRANCH   1   8
BRANCH   2  17
ATOM     17  N   UNL     1      23.960  41.530  47.795  0.00  0.00    +0.000 N 
ATOM     18  C   UNL     1      25.290  41.154  47.736  0.00  0.00    +0.000 C 
ATOM     19  O   UNL     1      26.154  41.465  48.551  0.00  0.00    +0.000 OA
ATOM     20  H   UNL     1      23.421  41.327  46.997  0.00  0.00    +0.000 HD
BRANCH  18  21
ATOM     21  C   UNL     1      25.653  40.391  46.469  0.00  0.00    +0.000 C 
BRANCH  21  22
ATOM     22  C   UNL     1      24.454  40.076  45.603  0.00  0.00    +0.000 A 
ATOM     23  C   UNL     1      23.786  38.846  45.724  0.00  0.00    +0.000 A 
ATOM     24  C   UNL     1      23.950  41.032  44.708  0.00  0.00    +0.000 A 
ATOM     25  C   UNL     1      22.650  38.571  44.959  0.00  0.00    +0.000 A 
ATOM     26  C   UNL     1      22.809  40.758  43.948  0.00  0.00    +0.000 A 
ATOM     27  C   UNL     1      22.163  39.530  44.076  0.00  0.00    +0.000 A 
ATOM     28 CL   UNL     1      20.753  39.203  43.149  0.00  0.00    +0.000 Cl
ENDBRANCH  21  22
ENDBRANCH  18  21
ENDBRANCH   2  17
BRANCH   2  29
ATOM     29  C   UNL     1      24.115  42.537  50.031  0.00  0.00    +0.000 C 
ATOM     30  O   UNL     1      24.149  41.931  51.089  0.00  0.00    +0.000 OA
ATOM     31  OXT UNL     1      24.803  43.680  49.804  0.00  0.00    +0.000 OA
ENDBRANCH   2  29
TORSDOF 7
ENDMDL
MODEL 7
REMARK VINA RESULT:      -7.3      2.680      3.557
REMARK  Name = 321584
REMARK  7 active torsions:
REMARK  status: ('A' for Active; 'I' for Inactive)
REMARK    1  A    between atoms: C_3  and  O_5
REMARK    2  A    between atoms: O_5  and  C_8
REMARK    3  A    between atoms: C_14  and  C_15
REMARK    4  A    between atoms: CA_16  and  N_17
REMARK    5  A    between atoms: CA_16  and  C_18
REMARK    6  A    between atoms: C_19  and  C_23
REMARK    7  A    between atoms: C_23  and  C_24
REMARK                            x       y       z     vdW  Elec       q    Type
REMARK                         _______ _______ _______ _____ _____    ______ ____
ROOT
ATOM      1  C   UNL     1      19.692  40.581  43.093  0.00  0.00    +0.000 C 
ATOM      2  CA  UNL     1      18.431  40.640  43.565  0.00  0.00    +0.000 C 
ENDROOT
BRANCH   1   8
ATOM      3  C   UNL     1      23.176  40.539  45.501  0.00  0.00    +0.000 A 
ATOM      4  C   UNL     1      22.408  41.699  45.432  0.00  0.00    +0.000 A 
ATOM      5  C   UNL     1      22.945  39.491  44.601  0.00  0.00    +0.000 A 
ATOM      6  C   UNL     1      21.309  41.751  44.573  0.00  0.00    +0.000 A 
ATOM      7  C   UNL     1      21.835  39.536  43.756  0.00  0.00    +0.000 A 
ATOM      8  C   UNL     1      20.988  40.651  43.764  0.00  0.00    +0.000 A 
BRANCH   3   9
ATOM      9  O   UNL     1      24.132  40.467  46.492  0.00  0.00    +0.000 OA
BRANCH   9  12
ATOM     10 BR   UNL     1      26.856  41.360  47.624  0.00  0.00    +0.000 Br
ATOM     11  C   UNL     1      25.111  41.719  48.279  0.00  0.00    +0.000 A 
ATOM     12  C   UNL     1      23.968  41.260  47.615  0.00  0.00    +0.000 A 
ATOM     13  C   UNL     1      24.992  42.468  49.456  0.00  0.00    +0.000 A 
ATOM     14  C   UNL     1      22.706  41.640  48.100  0.00  0.00    +0.000 A 
ATOM     15  C   UNL     1      23.730  42.773  49.969  0.00  0.00    +0.000 A 
ATOM     16  C   UNL     1      22.588  42.370  49.285  0.00  0.00    +0.000 A 
ENDBRANCH   9  12
ENDBRANCH   3   9
ENDBRANCH   1   8
BRANCH   2  17
ATOM     17  N   UNL     1      17.975  40.674  44.871  0.00  0.00    +0.000 N 
ATOM     18  C   UNL     1      17.799  39.620  45.748  0.00  0.00    +0.000 C 
ATOM     19  O   UNL     1      17.867  38.430  45.452  0.00  0.00    +0.000 OA
ATOM     20  H   UNL     1      17.747  41.566  45.221  0.00  0.00    +0.000 HD
BRANCH  18  21
ATOM     21  C   UNL     1      17.378  40.051  47.146  0.00  0.00    +0.000 C 
BRANCH  21  22
ATOM     22  C   UNL     1      17.579  41.529  47.396  0.00  0.00    +0.000 A 
ATOM     23  C   UNL     1      18.760  42.000  47.993  0.00  0.00    +0.000 A 
ATOM     24  C   UNL     1      16.617  42.460  46.976  0.00  0.00    +0.000 A 
ATOM     25  C   UNL     1      18.970  43.369  48.181  0.00  0.00    +0.000 A 
ATOM     26  C   UNL     1      16.830  43.831  47.159  0.00  0.00    +0.000 A 
ATOM     27  C   UNL     1      18.005  44.279  47.761  0.00  0.00    +0.000 A 
ATOM     28 CL   UNL     1      18.269  45.965  47.971  0.00  0.00    +0.000 Cl
ENDBRANCH  21  22
ENDBRANCH  18  21
ENDBRANCH   2  17
BRANCH   2  29
ATOM     29  C   UNL     1      17.385  40.741  42.486  0.00  0.00    +0.000 C 
ATOM     30  O   UNL     1      17.428  41.493  41.527  0.00  0.00    +0.000 OA
ATOM     31  OXT UNL     1      16.347  39.906  42.733  0.00  0.00    +0.000 OA
ENDBRANCH   2  29
TORSDOF 7
ENDMDL
MODEL 8
REMARK VINA RESULT:      -6.9      3.633      8.130
REMARK  Name = 321584
REMARK  7 active torsions:
REMARK  status: ('A' for Active; 'I' for Inactive)
REMARK    1  A    between atoms: C_3  and  O_5
REMARK    2  A    between atoms: O_5  and  C_8
REMARK    3  A    between atoms: C_14  and  C_15
REMARK    4  A    between atoms: CA_16  and  N_17
REMARK    5  A    between atoms: CA_16  and  C_18
REMARK    6  A    between atoms: C_19  and  C_23
REMARK    7  A    between atoms: C_23  and  C_24
REMARK                            x       y       z     vdW  Elec       q    Type
REMARK                         _______ _______ _______ _____ _____    ______ ____
ROOT
ATOM      1  C   UNL     1      22.923  40.544  43.832  0.00  0.00    +0.000 C 
ATOM      2  CA  UNL     1      23.585  40.955  44.932  0.00  0.00    +0.000 C 
ENDROOT
BRANCH   1   8
ATOM      3  C   UNL     1      18.702  40.477  43.487  0.00  0.00    +0.000 A 
ATOM      4  C   UNL     1      19.401  39.274  43.553  0.00  0.00    +0.000 A 
ATOM      5  C   UNL     1      19.392  41.678  43.286  0.00  0.00    +0.000 A 
ATOM      6  C   UNL     1      20.796  39.285  43.578  0.00  0.00    +0.000 A 
ATOM      7  C   UNL     1      20.787  41.690  43.329  0.00  0.00    +0.000 A 
ATOM      8  C   UNL     1      21.498  40.498  43.513  0.00  0.00    +0.000 A 
BRANCH   3   9
ATOM      9  O   UNL     1      17.334  40.428  43.653  0.00  0.00    +0.000 OA
BRANCH   9  12
ATOM     10 BR   UNL     1      16.859  42.587  45.800  0.00  0.00    +0.000 Br
ATOM     11  C   UNL     1      16.604  40.710  45.913  0.00  0.00    +0.000 A 
ATOM     12  C   UNL     1      16.838  39.870  44.819  0.00  0.00    +0.000 A 
ATOM     13  C   UNL     1      16.166  40.178  47.132  0.00  0.00    +0.000 A 
ATOM     14  C   UNL     1      16.539  38.503  44.941  0.00  0.00    +0.000 A 
ATOM     15  C   UNL     1      15.947  38.806  47.261  0.00  0.00    +0.000 A 
ATOM     16  C   UNL     1      16.122  37.970  46.162  0.00  0.00    +0.000 A 
ENDBRANCH   9  12
ENDBRANCH   3   9
ENDBRANCH   1   8
BRANCH   2  17
ATOM     17  N   UNL     1      23.108  41.572  46.074  0.00  0.00    +0.000 N 
ATOM     18  C   UNL     1      22.346  41.026  47.091  0.00  0.00    +0.000 C 
ATOM     19  O   UNL     1      21.818  39.918  47.067  0.00  0.00    +0.000 OA
ATOM     20  H   UNL     1      23.342  42.522  46.177  0.00  0.00    +0.000 HD
BRANCH  18  21
ATOM     21  C   UNL     1      22.095  41.984  48.248  0.00  0.00    +0.000 C 
BRANCH  21  22
ATOM     22  C   UNL     1      23.349  42.319  49.023  0.00  0.00    +0.000 A 
ATOM     23  C   UNL     1      23.268  42.912  50.294  0.00  0.00    +0.000 A 
ATOM     24  C   UNL     1      24.613  41.984  48.514  0.00  0.00    +0.000 A 
ATOM     25  C   UNL     1      24.424  43.178  51.034  0.00  0.00    +0.000 A 
ATOM     26  C   UNL     1      25.768  42.245  49.257  0.00  0.00    +0.000 A 
ATOM     27  C   UNL     1      25.669  42.841  50.513  0.00  0.00    +0.000 A 
ATOM     28 CL   UNL     1      27.092  43.148  51.430  0.00  0.00    +0.000 Cl
ENDBRANCH  21  22
ENDBRANCH  18  21
ENDBRANCH   2  17
BRANCH   2  29
ATOM     29  C   UNL     1      25.055  40.626  44.912  0.00  0.00    +0.000 C 
ATOM     30  O   UNL     1      25.858  41.025  44.085  0.00  0.00    +0.000 OA
ATOM     31  OXT UNL     1      25.380  39.785  45.921  0.00  0.00    +0.000 OA
ENDBRANCH   2  29
TORSDOF 7
ENDMDL
