REMARK  Name = 
REMARK  4 active torsions:
REMARK  status: ('A' for Active; 'I' for Inactive)
REMARK    1  A    between atoms: C_7  and  C_8
REMARK    2  A    between atoms: C_7  and  C_17
REMARK    3  A    between atoms: C_8  and  C_9
REMARK    4  A    between atoms: C_9  and  C_10
REMARK                            x       y       z     vdW  Elec       q    Type
REMARK                         _______ _______ _______ _____ _____    ______ ____
ROOT
ATOM      1  O   UNL     1       0.817   0.004  -0.234  0.00  0.00    -0.297 OA
ATOM      2  C   UNL     1       2.048  -0.018  -0.224  0.00  0.00    +0.148 C 
ATOM      3  C   UNL     1       2.805  -1.290  -0.413  0.00  0.00    +0.194 C 
ATOM      4  C   UNL     1       4.265  -1.145  -0.691  0.00  0.00    +0.315 C 
ATOM      5  O   UNL     1       4.996  -2.129  -0.751  0.00  0.00    -0.250 OA
ATOM      6  O   UNL     1       4.770   0.094  -0.870  0.00  0.00    -0.457 OA
ATOM      7  C   UNL     1       3.971   1.321  -0.946  0.00  0.00    +0.123 C 
ATOM      8  C   UNL     1       2.839   1.216   0.073  0.00  0.00    +0.123 C 
ENDROOT
BRANCH   7   9
ATOM      9  C   UNL     1       4.966   2.470  -0.597  0.00  0.00    +0.033 C 
ATOM     10  C   UNL     1       4.382   3.754   0.001  0.00  0.00    +0.007 C 
ATOM     11  C   UNL     1       5.616   4.521   0.458  0.00  0.00    +0.000 C 
ATOM     12  C   UNL     1       6.597   3.451   0.928  0.00  0.00    +0.000 C 
ATOM     13  C   UNL     1       6.018   2.112   0.470  0.00  0.00    +0.007 C 
ENDBRANCH   7   9
BRANCH   7  14
ATOM     14  C   UNL     1       3.488   1.392  -2.429  0.00  0.00    +0.053 C 
BRANCH  14  15
ATOM     15  C   UNL     1       2.605   2.570  -2.868  0.00  0.00    +0.039 C 
BRANCH  15  16
ATOM     16  C   UNL     1       3.291   3.834  -3.338  0.00  0.00    -0.046 A 
ATOM     17  C   UNL     1       4.461   3.817  -4.110  0.00  0.00    +0.004 A 
ATOM     18  C   UNL     1       5.047   5.008  -4.552  0.00  0.00    +0.002 A 
ATOM     19  C   UNL     1       4.459   6.233  -4.247  0.00  0.00    +0.020 A 
ATOM     20  C   UNL     1       3.278   6.262  -3.513  0.00  0.00    +0.041 A 
ATOM     21 CL   UNL     1       2.536   7.771  -3.145  0.00  0.00    -0.084 Cl
ATOM     22  C   UNL     1       2.689   5.076  -3.071  0.00  0.00    +0.023 A 
ENDBRANCH  15  16
ENDBRANCH  14  15
ENDBRANCH   7  14
TORSDOF 4
