
 OpenBabel09132204463D

 22 24  0  0  1  0  0  0  0  0999 V2000
   10.3790   11.5410   -2.3060 O   0  0  0  0  0  0  0  0  0  0  0  0
    9.9310   11.1850   -1.2160 C   0  0  0  0  0  0  0  0  0  0  0  0
    8.7140   11.8190   -0.6300 C   0  0  0  0  0  2  0  0  0  0  0  0
    8.0970   11.1020    0.5260 C   0  0  0  0  0  0  0  0  0  0  0  0
    7.1620   11.5970    1.1480 O   0  0  0  0  0  0  0  0  0  0  0  0
    8.5920    9.8970    0.8790 O   0  0  0  0  0  0  0  0  0  0  0  0
    9.6160    9.1610    0.1310 C   0  0  1  0  0  0  0  0  0  0  0  0
   10.6430   10.1650   -0.3860 C   0  0  0  0  0  2  0  0  0  0  0  0
   10.2360    8.1720    1.1660 C   0  0  0  0  0  3  0  0  0  0  0  0
    9.8260    8.3360    2.6330 C   0  0  0  0  0  2  0  0  0  0  0  0
   10.3810    7.0810    3.2950 C   0  0  0  0  0  2  0  0  0  0  0  0
   10.2440    5.9840    2.2430 C   0  0  0  0  0  2  0  0  0  0  0  0
    9.8840    6.6900    0.9360 C   0  0  0  0  0  2  0  0  0  0  0  0
    8.8310    8.4170   -0.9940 C   0  0  0  0  0  2  0  0  0  0  0  0
    9.5540    8.0800   -2.3080 C   0  0  0  0  0  2  0  0  0  0  0  0
    8.8450    8.3930   -3.6070 C   0  0  0  0  0  0  0  0  0  0  0  0
    8.2000    7.4110   -4.3720 C   0  0  0  0  0  3  0  0  0  0  0  0
    7.5290    7.7470   -5.5530 C   0  0  0  0  0  3  0  0  0  0  0  0
    7.4740    9.0730   -5.9740 C   0  0  0  0  0  3  0  0  0  0  0  0
    8.0790   10.0620   -5.2050 C   0  0  0  0  0  0  0  0  0  0  0  0
    8.0020   11.7060   -5.7100 Cl  0  0  0  0  0  0  0  0  0  0  0  0
    8.7490    9.7320   -4.0260 C   0  0  0  0  0  3  0  0  0  0  0  0
  1  2  2  0  0  0  0
  2  3  1  0  0  0  0
  2  8  1  0  0  0  0
  3  4  1  0  0  0  0
  4  6  1  0  0  0  0
  4  5  2  0  0  0  0
  7 14  1  6  0  0  0
  7  6  1  0  0  0  0
  7  9  1  0  0  0  0
  8  7  1  0  0  0  0
  9 10  1  0  0  0  0
 10 11  1  0  0  0  0
 12 11  1  0  0  0  0
 13  9  1  0  0  0  0
 13 12  1  0  0  0  0
 15 14  1  0  0  0  0
 16 15  1  0  0  0  0
 17 16  2  0  0  0  0
 18 17  1  0  0  0  0
 19 18  2  0  0  0  0
 19 20  1  0  0  0  0
 20 22  2  0  0  0  0
 21 20  1  0  0  0  0
 22 16  1  0  0  0  0
M  END
>  <minimizedAffinity>
-3.20504928

$$$$
