
 OpenBabel09132204463D

 22 24  0  0  1  0  0  0  0  0999 V2000
    6.0980   -4.5070   -1.8050 O   0  0  0  0  0  0  0  0  0  0  0  0
    6.5640   -5.0430   -0.7990 C   0  0  0  0  0  0  0  0  0  0  0  0
    8.0080   -5.4050   -0.7090 C   0  0  0  0  0  2  0  0  0  0  0  0
    8.5090   -5.7540    0.6540 C   0  0  0  0  0  0  0  0  0  0  0  0
    9.6510   -6.1730    0.8180 O   0  0  0  0  0  0  0  0  0  0  0  0
    7.6780   -5.6050    1.7070 O   0  0  0  0  0  0  0  0  0  0  0  0
    6.3450   -4.9970    1.6430 C   0  0  1  0  0  0  0  0  0  0  0  0
    5.6820   -5.4400    0.3420 C   0  0  0  0  0  2  0  0  0  0  0  0
    5.5950   -5.5410    2.8970 C   0  0  0  0  0  3  0  0  0  0  0  0
    5.3020   -4.5530    4.0300 C   0  0  0  0  0  2  0  0  0  0  0  0
    4.3520   -5.3280    4.9340 C   0  0  0  0  0  2  0  0  0  0  0  0
    3.5090   -6.1780    3.9890 C   0  0  0  0  0  2  0  0  0  0  0  0
    4.1790   -6.0820    2.6180 C   0  0  0  0  0  2  0  0  0  0  0  0
    6.6040   -3.4600    1.7340 C   0  0  0  0  0  2  0  0  0  0  0  0
    7.9150   -2.9620    2.3590 C   0  0  0  0  0  2  0  0  0  0  0  0
    8.7460   -1.9720    1.5720 C   0  0  0  0  0  0  0  0  0  0  0  0
    9.4720   -2.3350    0.4290 C   0  0  0  0  0  3  0  0  0  0  0  0
   10.2020   -1.3820   -0.2900 C   0  0  0  0  0  3  0  0  0  0  0  0
   10.1990   -0.0480    0.1110 C   0  0  0  0  0  3  0  0  0  0  0  0
    9.4520    0.3310    1.2210 C   0  0  0  0  0  0  0  0  0  0  0  0
    9.4290    1.9800    1.7140 Cl  0  0  0  0  0  0  0  0  0  0  0  0
    8.7210   -0.6160    1.9410 C   0  0  0  0  0  3  0  0  0  0  0  0
  1  2  2  0  0  0  0
  2  3  1  0  0  0  0
  2  8  1  0  0  0  0
  3  4  1  0  0  0  0
  4  5  2  0  0  0  0
  4  6  1  0  0  0  0
  7  6  1  0  0  0  0
  7 14  1  1  0  0  0
  7  9  1  0  0  0  0
  8  7  1  0  0  0  0
  9 10  1  0  0  0  0
 10 11  1  0  0  0  0
 12 11  1  0  0  0  0
 13  9  1  0  0  0  0
 13 12  1  0  0  0  0
 14 15  1  0  0  0  0
 16 22  1  0  0  0  0
 16 15  1  0  0  0  0
 17 16  2  0  0  0  0
 18 19  2  0  0  0  0
 18 17  1  0  0  0  0
 19 20  1  0  0  0  0
 20 21  1  0  0  0  0
 20 22  2  0  0  0  0
M  END
>  <minimizedAffinity>
-0.695830405

$$$$
