REMARK  Name = 
REMARK  6 active torsions:
REMARK  status: ('A' for Active; 'I' for Inactive)
REMARK    1  A    between atoms: C_2  and  C_4
REMARK    2  A    between atoms: C_4  and  C_6
REMARK    3  A    between atoms: C_7  and  C_9
REMARK    4  A    between atoms: C_13  and  N_14
REMARK    5  A    between atoms: N_14  and  C_15
REMARK    6  A    between atoms: C_15  and  C_16
REMARK                            x       y       z     vdW  Elec       q    Type
REMARK                         _______ _______ _______ _____ _____    ______ ____
ROOT
ATOM      1  C   UNL     1       6.639   0.356   0.922  0.00  0.00    -0.031 A 
ATOM      2  C   UNL     1       7.219  -0.821   0.438  0.00  0.00    +0.007 A 
ATOM      3  C   UNL     1       8.593  -0.883   0.220  0.00  0.00    +0.002 A 
ATOM      4  C   UNL     1       9.399   0.230   0.489  0.00  0.00    +0.023 A 
ATOM      5  C   UNL     1       8.854   1.422   0.979  0.00  0.00    +0.028 A 
ATOM      6  C   UNL     1       7.467   1.458   1.195  0.00  0.00    +0.030 A 
ENDROOT
BRANCH   1   8
ATOM      7  C   UNL     1       4.520   0.571  -0.048  0.00  0.00    +0.045 C 
ATOM      8  C   UNL     1       5.156   0.447   1.146  0.00  0.00    -0.097 C 
ATOM      9  O   UNL     1       4.716   0.410   2.331  0.00  0.00    -0.873 OA
BRANCH   7  10
ATOM     10  C   UNL     1       3.049   0.697  -0.371  0.00  0.00    +0.201 C 
ATOM     11  O   UNL     1       2.130   0.778   0.441  0.00  0.00    -0.286 OA
BRANCH  10  13
ATOM     12  O   UNL     1       1.402   0.931  -2.171  0.00  0.00    -0.541 OA
ATOM     13  C   UNL     1       2.634   0.743  -1.878  0.00  0.00    +0.111 C 
ATOM     14  O   UNL     1       3.564   0.589  -2.747  0.00  0.00    -0.541 OA
ENDBRANCH  10  13
ENDBRANCH   7  10
ENDBRANCH   1   8
BRANCH   5  15
ATOM     15  N   UNL     1       9.601   2.547   1.283  0.00  0.00    -0.340 N 
ATOM     16  H   UNL     1       9.065   3.373   1.523  0.00  0.00    +0.146 HD
BRANCH  15  17
ATOM     17  C   UNL     1      11.031   2.700   1.166  0.00  0.00    +0.136 C 
BRANCH  17  18
ATOM     18  C   UNL     1      11.423   3.565  -0.013  0.00  0.00    -0.030 A 
ATOM     19  C   UNL     1      10.779   3.456  -1.254  0.00  0.00    +0.005 A 
ATOM     20  C   UNL     1      11.181   4.237  -2.340  0.00  0.00    +0.000 A 
ATOM     21  C   UNL     1      12.243   5.128  -2.204  0.00  0.00    +0.000 A 
ATOM     22  C   UNL     1      12.904   5.238  -0.983  0.00  0.00    +0.000 A 
ATOM     23  C   UNL     1      12.500   4.458   0.104  0.00  0.00    +0.005 A 
ENDBRANCH  17  18
ENDBRANCH  15  17
ENDBRANCH   5  15
TORSDOF 6
