
 OpenBabel09122222393D

 23 24  0  0  0  0  0  0  0  0999 V2000
    9.7000   -1.9600    1.3560 C   0  0  0  0  0  0  0  0  0  0  0  0
    9.4410   -0.5980    1.1670 C   0  0  0  0  0  3  0  0  0  0  0  0
    9.8330    0.0290   -0.0130 C   0  0  0  0  0  3  0  0  0  0  0  0
   10.4830   -0.7010   -1.0160 C   0  0  0  0  0  3  0  0  0  0  0  0
   10.7530   -2.0650   -0.8640 C   0  0  0  0  0  0  0  0  0  0  0  0
   10.3440   -2.6760    0.3330 C   0  0  0  0  0  3  0  0  0  0  0  0
    9.9110   -2.0500    3.6850 C   0  0  0  0  0  2  0  0  0  0  0  0
    9.3000   -2.6490    2.6290 C   0  0  0  0  0  0  0  0  0  0  0  0
    8.5120   -3.6360    2.5660 O   0  0  0  0  0  0  0  0  0  0  0  0
    9.8440   -2.3560    5.1630 C   0  0  0  0  0  0  0  0  0  0  0  0
   10.7990   -2.5830    5.9030 O   0  0  0  0  0  0  0  0  0  0  0  0
    7.7770   -3.4750    5.8570 O   0  0  0  0  0  0  0  0  0  0  0  0
    8.4360   -2.3770    5.8420 C   0  0  0  0  0  0  0  0  0  0  0  0
    8.0140   -1.2800    6.3530 O   0  0  0  0  0  1  0  0  0  0  0  0
   11.3730   -2.8430   -1.8260 N   0  0  0  0  0  0  0  0  0  0  0  0
   10.8830   -2.9120   -2.7110 H   0  0  0  0  0  0  0  0  0  0  0  0
   12.5530   -3.6570   -1.6610 C   0  0  0  0  0  2  0  0  0  0  0  0
   13.8130   -2.8270   -1.5410 C   0  0  0  0  0  0  0  0  0  0  0  0
   13.9730   -1.6230   -2.2430 C   0  0  0  0  0  3  0  0  0  0  0  0
   15.1590   -0.8910   -2.1470 C   0  0  0  0  0  3  0  0  0  0  0  0
   16.2070   -1.3610   -1.3600 C   0  0  0  0  0  3  0  0  0  0  0  0
   16.0720   -2.5620   -0.6680 C   0  0  0  0  0  3  0  0  0  0  0  0
   14.8840   -3.2930   -0.7620 C   0  0  0  0  0  3  0  0  0  0  0  0
  1  8  1  0  0  0  0
  2  1  1  0  0  0  0
  3  2  2  0  0  0  0
  4  5  2  0  0  0  0
  4  3  1  0  0  0  0
  5  6  1  0  0  0  0
  6  1  2  0  0  0  0
  7 10  1  0  0  0  0
  8  7  1  0  0  0  0
  9  8  2  0  0  0  0
 10 13  1  0  0  0  0
 10 11  2  0  0  0  0
 13 12  2  0  0  0  0
 13 14  1  0  0  0  0
 15 17  1  0  0  0  0
 15  5  1  0  0  0  0
 16 15  1  0  0  0  0
 17 18  1  0  0  0  0
 18 23  1  0  0  0  0
 19 20  1  0  0  0  0
 19 18  2  0  0  0  0
 20 21  2  0  0  0  0
 21 22  1  0  0  0  0
 23 22  2  0  0  0  0
M  END
>  <minimizedAffinity>
-7.20581675

$$$$
