
 OpenBabel09122222393D

 23 24  0  0  0  0  0  0  0  0999 V2000
   12.4150    0.0690   -1.9950 C   0  0  0  0  0  0  0  0  0  0  0  0
   13.6230   -0.5240   -2.3770 C   0  0  0  0  0  3  0  0  0  0  0  0
   13.7560   -1.9100   -2.3560 C   0  0  0  0  0  3  0  0  0  0  0  0
   12.6820   -2.7140   -1.9580 C   0  0  0  0  0  3  0  0  0  0  0  0
   11.4570   -2.1560   -1.5740 C   0  0  0  0  0  0  0  0  0  0  0  0
   11.3460   -0.7560   -1.6080 C   0  0  0  0  0  3  0  0  0  0  0  0
   11.6760    1.9620   -0.8330 C   0  0  0  0  0  2  0  0  0  0  0  0
   12.2590    1.5640   -1.9940 C   0  0  0  0  0  0  0  0  0  0  0  0
   12.6500    2.2180   -3.0030 O   0  0  0  0  0  0  0  0  0  0  0  0
   11.3040    3.3410   -0.3410 C   0  0  0  0  0  0  0  0  0  0  0  0
   11.9830    4.3600   -0.4480 O   0  0  0  0  0  0  0  0  0  0  0  0
    9.0990    4.3830   -0.0970 O   0  0  0  0  0  0  0  0  0  0  0  0
    9.9190    3.5150    0.3640 C   0  0  0  0  0  0  0  0  0  0  0  0
    9.6800    2.7680    1.3780 O   0  0  0  0  0  1  0  0  0  0  0  0
   10.3540   -2.8990   -1.1910 N   0  0  0  0  0  0  0  0  0  0  0  0
    9.5540   -2.8400   -1.8110 H   0  0  0  0  0  0  0  0  0  0  0  0
   10.1800   -3.6270    0.0420 C   0  0  0  0  0  2  0  0  0  0  0  0
    9.8940   -2.7130    1.2150 C   0  0  0  0  0  0  0  0  0  0  0  0
    9.1790   -1.5170    1.0600 C   0  0  0  0  0  3  0  0  0  0  0  0
    8.9570   -0.6700    2.1480 C   0  0  0  0  0  3  0  0  0  0  0  0
    9.4610   -1.0000    3.4040 C   0  0  0  0  0  3  0  0  0  0  0  0
   10.1870   -2.1770    3.5730 C   0  0  0  0  0  3  0  0  0  0  0  0
   10.4060   -3.0250    2.4840 C   0  0  0  0  0  3  0  0  0  0  0  0
  1  8  1  0  0  0  0
  1  6  1  0  0  0  0
  2  3  1  0  0  0  0
  2  1  2  0  0  0  0
  3  4  2  0  0  0  0
  4  5  1  0  0  0  0
  5 15  1  0  0  0  0
  6  5  2  0  0  0  0
  7 10  1  0  0  0  0
  8  7  1  0  0  0  0
  9  8  2  0  0  0  0
 10 13  1  0  0  0  0
 11 10  2  0  0  0  0
 12 13  2  0  0  0  0
 13 14  1  0  0  0  0
 15 17  1  0  0  0  0
 16 15  1  0  0  0  0
 17 18  1  0  0  0  0
 18 23  1  0  0  0  0
 19 18  2  0  0  0  0
 19 20  1  0  0  0  0
 20 21  2  0  0  0  0
 21 22  1  0  0  0  0
 23 22  2  0  0  0  0
M  END
>  <minimizedAffinity>
-6.93784666

$$$$
