
 OpenBabel09122222393D

 23 24  0  0  0  0  0  0  0  0999 V2000
   10.6200   -1.8800   -0.9170 C   0  0  0  0  0  0  0  0  0  0  0  0
   11.6200   -2.1330   -1.8610 C   0  0  0  0  0  3  0  0  0  0  0  0
   12.2200   -1.0770   -2.5420 C   0  0  0  0  0  3  0  0  0  0  0  0
   11.8280    0.2420   -2.2810 C   0  0  0  0  0  3  0  0  0  0  0  0
   10.8340    0.5330   -1.3390 C   0  0  0  0  0  0  0  0  0  0  0  0
   10.2480   -0.5490   -0.6630 C   0  0  0  0  0  3  0  0  0  0  0  0
    9.5980   -2.6000    1.0620 C   0  0  0  0  0  2  0  0  0  0  0  0
    9.9490   -3.0080   -0.1860 C   0  0  0  0  0  0  0  0  0  0  0  0
    9.8120   -4.1190   -0.7750 O   0  0  0  0  0  0  0  0  0  0  0  0
    8.9060   -3.3430    2.1810 C   0  0  0  0  0  0  0  0  0  0  0  0
    7.9980   -4.1620    2.0590 O   0  0  0  0  0  0  0  0  0  0  0  0
   10.5820   -2.6570    3.8340 O   0  0  0  0  0  0  0  0  0  0  0  0
    9.3830   -3.0660    3.6450 C   0  0  0  0  0  0  0  0  0  0  0  0
    8.5350   -3.2660    4.5850 O   0  0  0  0  0  1  0  0  0  0  0  0
   10.4190    1.8150   -1.0240 N   0  0  0  0  0  0  0  0  0  0  0  0
   10.0610    2.3590   -1.8000 H   0  0  0  0  0  0  0  0  0  0  0  0
   10.5660    2.4900    0.2430 C   0  0  0  0  0  2  0  0  0  0  0  0
   10.7090    3.9880    0.0840 C   0  0  0  0  0  0  0  0  0  0  0  0
    9.5930    4.8360    0.0470 C   0  0  0  0  0  3  0  0  0  0  0  0
    9.7450    6.2120   -0.1390 C   0  0  0  0  0  3  0  0  0  0  0  0
   11.0160    6.7580   -0.3030 C   0  0  0  0  0  3  0  0  0  0  0  0
   12.1350    5.9290   -0.2840 C   0  0  0  0  0  3  0  0  0  0  0  0
   11.9820    4.5520   -0.0960 C   0  0  0  0  0  3  0  0  0  0  0  0
  1  6  1  0  0  0  0
  1  8  1  0  0  0  0
  2  1  2  0  0  0  0
  3  4  2  0  0  0  0
  3  2  1  0  0  0  0
  4  5  1  0  0  0  0
  5 15  1  0  0  0  0
  5  6  2  0  0  0  0
  7 10  1  0  0  0  0
  8  7  1  0  0  0  0
  9  8  2  0  0  0  0
 10 13  1  0  0  0  0
 11 10  2  0  0  0  0
 13 12  2  0  0  0  0
 13 14  1  0  0  0  0
 15 17  1  0  0  0  0
 16 15  1  0  0  0  0
 18 17  1  0  0  0  0
 19 18  1  0  0  0  0
 20 19  2  0  0  0  0
 21 22  2  0  0  0  0
 21 20  1  0  0  0  0
 22 23  1  0  0  0  0
 23 18  2  0  0  0  0
M  END
>  <minimizedAffinity>
-6.80491686

$$$$
