
 OpenBabel09122222393D

 23 24  0  0  0  0  0  0  0  0999 V2000
    9.6470   -0.6370    0.7550 C   0  0  0  0  0  0  0  0  0  0  0  0
    9.0190   -1.6020    1.5480 C   0  0  0  0  0  3  0  0  0  0  0  0
    9.1240   -2.9510    1.2180 C   0  0  0  0  0  3  0  0  0  0  0  0
    9.8630   -3.3460    0.0960 C   0  0  0  0  0  3  0  0  0  0  0  0
   10.5090   -2.4080   -0.7170 C   0  0  0  0  0  0  0  0  0  0  0  0
   10.3920   -1.0550   -0.3610 C   0  0  0  0  0  3  0  0  0  0  0  0
   10.2520    1.5540    0.1950 C   0  0  0  0  0  2  0  0  0  0  0  0
    9.5300    0.8250    1.0850 C   0  0  0  0  0  0  0  0  0  0  0  0
    8.8340    1.1690    2.0830 O   0  0  0  0  0  0  0  0  0  0  0  0
   10.4610    3.0470    0.0860 C   0  0  0  0  0  0  0  0  0  0  0  0
    9.6000    3.9140    0.2140 O   0  0  0  0  0  0  0  0  0  0  0  0
   12.8270    2.7050   -0.4570 O   0  0  0  0  0  0  0  0  0  0  0  0
   11.9090    3.5610   -0.2050 C   0  0  0  0  0  0  0  0  0  0  0  0
   12.0980    4.8290   -0.1760 O   0  0  0  0  0  1  0  0  0  0  0  0
   11.2700   -2.7380   -1.8250 N   0  0  0  0  0  0  0  0  0  0  0  0
   10.8980   -2.4270   -2.7160 H   0  0  0  0  0  0  0  0  0  0  0  0
   12.4430   -3.5760   -1.8570 C   0  0  0  0  0  2  0  0  0  0  0  0
   13.7200   -2.7870   -1.6590 C   0  0  0  0  0  0  0  0  0  0  0  0
   13.9360   -1.5600   -2.3030 C   0  0  0  0  0  3  0  0  0  0  0  0
   15.1360   -0.8660   -2.1360 C   0  0  0  0  0  3  0  0  0  0  0  0
   16.1450   -1.3970   -1.3350 C   0  0  0  0  0  3  0  0  0  0  0  0
   15.9540   -2.6220   -0.7020 C   0  0  0  0  0  3  0  0  0  0  0  0
   14.7510   -3.3150   -0.8660 C   0  0  0  0  0  3  0  0  0  0  0  0
  1  8  1  0  0  0  0
  1  2  1  0  0  0  0
  3  2  2  0  0  0  0
  4  3  1  0  0  0  0
  5  6  1  0  0  0  0
  5  4  2  0  0  0  0
  6  1  2  0  0  0  0
  7  8  1  0  0  0  0
  8  9  2  0  0  0  0
 10  7  1  0  0  0  0
 10 11  2  0  0  0  0
 12 13  2  0  0  0  0
 13 14  1  0  0  0  0
 13 10  1  0  0  0  0
 15  5  1  0  0  0  0
 16 15  1  0  0  0  0
 17 15  1  0  0  0  0
 17 18  1  0  0  0  0
 18 23  1  0  0  0  0
 19 20  1  0  0  0  0
 19 18  2  0  0  0  0
 20 21  2  0  0  0  0
 21 22  1  0  0  0  0
 23 22  2  0  0  0  0
M  END
>  <minimizedAffinity>
-7.24668598

$$$$
