
 OpenBabel09122222393D

 39 41  0  0  1  0  0  0  0  0999 V2000
    3.4110   -5.7390    4.1930 C   0  0  1  0  0  3  0  0  0  0  0  0
    4.0760   -6.0190    5.3110 N   0  0  0  0  0  0  0  0  0  0  0  0
    3.8580   -7.3720    6.1910 S   0  0  0  0  0  0  0  0  0  0  0  0
    4.6100   -8.4840    5.6570 O   0  0  0  0  0  0  0  0  0  0  0  0
    3.9430   -7.0490    7.6000 O   0  0  0  0  0  0  0  0  0  0  0  0
    2.1400   -7.7130    5.9160 C   0  0  0  0  0  0  0  0  0  0  0  0
    0.9280   -8.1570    7.1690 C   0  0  0  0  0  3  0  0  0  0  0  0
   -0.8250   -8.1800    6.7180 C   0  0  0  0  0  0  0  0  0  0  0  0
   -1.3360   -7.8250    5.0140 C   0  0  0  0  0  3  0  0  0  0  0  0
   -0.0860   -7.4090    3.7610 C   0  0  0  0  0  3  0  0  0  0  0  0
    1.6510   -7.3690    4.2240 C   0  0  0  0  0  0  0  0  0  0  0  0
    2.6740   -6.7370    3.4590 N   0  0  0  0  0  0  0  0  0  0  0  0
    4.3780   -5.2450    5.8880 H   0  0  0  0  0  0  0  0  0  0  0  0
    2.3650   -6.4740    2.5220 H   0  0  0  0  0  0  0  0  0  0  0  0
    4.6660   -3.2060    4.7110 N   0  0  0  0  0  0  0  0  0  0  0  0
    3.7860   -3.4840    3.6610 C   0  0  0  0  0  0  0  0  0  0  0  0
    4.0560   -3.5150    2.4650 O   0  0  0  0  0  0  0  0  0  0  0  0
    2.7020   -4.3880    4.2000 C   0  0  2  0  0  3  0  0  0  0  0  0
    2.0910   -3.8780    5.2930 C   0  0  2  0  0  3  0  0  0  0  0  0
    2.6810   -2.6860    5.9550 C   0  0  0  0  0  0  0  0  0  0  0  0
    2.0180   -1.9370    6.9220 C   0  0  0  0  0  3  0  0  0  0  0  0
    2.7210   -0.9560    7.6150 C   0  0  0  0  0  3  0  0  0  0  0  0
    4.0720   -0.7850    7.3400 C   0  0  0  0  0  3  0  0  0  0  0  0
    4.7600   -1.5070    6.4250 N   0  0  0  0  0  0  0  0  0  0  0  0
    4.0500   -2.4200    5.7330 C   0  0  0  0  0  0  0  0  0  0  0  0
    1.2570   -4.6240    6.1010 O   0  0  0  0  0  0  0  0  0  0  0  0
    0.7270   -5.2330    5.5530 H   0  0  0  0  0  0  0  0  0  0  0  0
    6.2380   -3.5620    4.6590 C   0  0  0  0  0  1  0  0  0  0  0  0
    7.6610   -4.0590    3.0610 C   0  0  0  0  0  1  0  0  0  0  0  0
    6.4560   -6.0390    1.5910 C   0  0  0  0  0  1  0  0  0  0  0  0
    7.7250   -5.1680    1.6850 C   0  0  0  0  0  3  0  0  0  0  0  0
    7.8130   -4.3480    0.3780 C   0  0  0  0  0  1  0  0  0  0  0  0
   -1.8410   -8.4610    7.5880 O   0  0  0  0  0  0  0  0  0  0  0  0
   -3.1460   -8.3680    7.0130 C   0  0  0  0  0  2  0  0  0  0  0  0
   -3.8230   -7.1360    7.6160 C   0  0  0  0  0  2  0  0  0  0  0  0
   -4.1660   -6.1710    6.5320 N   0  0  0  0  0  4  0  0  0  0  0  0
   -4.8830   -6.5340    5.8920 H   0  0  0  0  0  0  0  0  0  0  0  0
   -4.4990   -5.2740    6.9080 H   0  0  0  0  0  0  0  0  0  0  0  0
   -3.3220   -5.9780    5.9670 H   0  0  0  0  0  0  0  0  0  0  0  0
  1 12  1  1  0  0  0
  1 18  1  0  0  0  0
  1  2  1  0  0  0  0
  2 13  1  0  0  0  0
  2  3  1  0  0  0  0
  3  5  2  0  0  0  0
  4  3  2  0  0  0  0
  6  3  1  0  0  0  0
  6  7  1  0  0  0  0
  8  7  2  0  0  0  0
  8 33  1  0  0  0  0
  9  8  1  0  0  0  0
 10 11  1  0  0  0  0
 10  9  2  0  0  0  0
 11  6  2  0  0  0  0
 12 11  1  0  0  0  0
 14 12  1  0  0  0  0
 15 25  1  0  0  0  0
 16 15  1  0  0  0  0
 17 16  2  0  0  0  0
 18 16  1  1  0  0  0
 18 19  1  0  0  0  0
 19 20  1  0  0  0  0
 19 26  1  1  0  0  0
 20 21  1  0  0  0  0
 21 22  2  0  0  0  0
 23 22  1  0  0  0  0
 24 23  2  0  0  0  0
 25 20  2  0  0  0  0
 25 24  1  0  0  0  0
 27 26  1  0  0  0  0
 28 15  1  0  0  0  0
 30 31  1  0  0  0  0
 31 29  1  0  0  0  0
 32 31  1  0  0  0  0
 34 33  1  0  0  0  0
 34 35  1  0  0  0  0
 36 38  1  0  0  0  0
 36 35  1  0  0  0  0
 37 36  1  0  0  0  0
 39 36  1  0  0  0  0
M  END
>  <minimizedAffinity>
-0.684679925

$$$$
