
 OpenBabel09122220023D

 39 41  0  0  1  0  0  0  0  0999 V2000
    3.4110   -5.7390    4.1930 C   0  0  1  0  0  3  0  0  0  0  0  0
    4.0760   -6.0190    5.3110 N   0  0  0  0  0  0  0  0  0  0  0  0
    3.8580   -7.3720    6.1910 S   0  0  0  0  0  0  0  0  0  0  0  0
    4.6100   -8.4840    5.6570 O   0  0  0  0  0  0  0  0  0  0  0  0
    3.9430   -7.0490    7.6000 O   0  0  0  0  0  0  0  0  0  0  0  0
    2.1400   -7.7130    5.9160 C   0  0  0  0  0  0  0  0  0  0  0  0
    0.9280   -8.1570    7.1690 C   0  0  0  0  0  3  0  0  0  0  0  0
   -0.8250   -8.1800    6.7180 C   0  0  0  0  0  0  0  0  0  0  0  0
   -1.3360   -7.8250    5.0140 C   0  0  0  0  0  3  0  0  0  0  0  0
   -0.0860   -7.4090    3.7610 C   0  0  0  0  0  3  0  0  0  0  0  0
    1.6510   -7.3690    4.2240 C   0  0  0  0  0  0  0  0  0  0  0  0
    2.6740   -6.7370    3.4590 N   0  0  0  0  0  0  0  0  0  0  0  0
    4.3780   -5.2450    5.8880 H   0  0  0  0  0  0  0  0  0  0  0  0
    2.3650   -6.4740    2.5220 H   0  0  0  0  0  0  0  0  0  0  0  0
    4.6660   -3.2060    4.7110 N   0  0  0  0  0  0  0  0  0  0  0  0
    3.7860   -3.4840    3.6610 C   0  0  0  0  0  0  0  0  0  0  0  0
    4.0560   -3.5150    2.4650 O   0  0  0  0  0  0  0  0  0  0  0  0
    2.7020   -4.3880    4.2000 C   0  0  2  0  0  3  0  0  0  0  0  0
    2.0910   -3.8780    5.2930 C   0  0  2  0  0  3  0  0  0  0  0  0
    2.6810   -2.6860    5.9550 C   0  0  0  0  0  0  0  0  0  0  0  0
    2.0180   -1.9370    6.9220 C   0  0  0  0  0  3  0  0  0  0  0  0
    2.7210   -0.9560    7.6150 C   0  0  0  0  0  3  0  0  0  0  0  0
    4.0720   -0.7850    7.3400 C   0  0  0  0  0  3  0  0  0  0  0  0
    4.7600   -1.5070    6.4250 N   0  0  0  0  0  0  0  0  0  0  0  0
    4.0500   -2.4200    5.7330 C   0  0  0  0  0  0  0  0  0  0  0  0
    1.2570   -4.6240    6.1010 O   0  0  0  0  0  0  0  0  0  0  0  0
    0.7270   -5.2330    5.5530 H   0  0  0  0  0  0  0  0  0  0  0  0
    6.2380   -3.5620    4.6590 C   0  0  0  0  0  1  0  0  0  0  0  0
    7.6610   -4.0590    3.0610 C   0  0  0  0  0  1  0  0  0  0  0  0
    6.4560   -6.0390    1.5910 C   0  0  0  0  0  1  0  0  0  0  0  0
    7.7250   -5.1680    1.6850 C   0  0  0  0  0  3  0  0  0  0  0  0
    7.8130   -4.3480    0.3780 C   0  0  0  0  0  1  0  0  0  0  0  0
   -1.8410   -8.4610    7.5880 O   0  0  0  0  0  0  0  0  0  0  0  0
   -3.1460   -8.3680    7.0130 C   0  0  0  0  0  2  0  0  0  0  0  0
   -3.8230   -7.1360    7.6160 C   0  0  0  0  0  2  0  0  0  0  0  0
   -4.1660   -6.1710    6.5320 N   0  0  0  0  0  4  0  0  0  0  0  0
   -4.8830   -6.5340    5.8920 H   0  0  0  0  0  0  0  0  0  0  0  0
   -4.4990   -5.2740    6.9080 H   0  0  0  0  0  0  0  0  0  0  0  0
   -3.3220   -5.9780    5.9670 H   0  0  0  0  0  0  0  0  0  0  0  0
  1 12  1  1  0  0  0
  1 18  1  0  0  0  0
  1  2  1  0  0  0  0
  2 13  1  0  0  0  0
  2  3  1  0  0  0  0
  3  5  2  0  0  0  0
  4  3  2  0  0  0  0
  6  3  1  0  0  0  0
  6  7  1  0  0  0  0
  8  7  2  0  0  0  0
  8 33  1  0  0  0  0
  9  8  1  0  0  0  0
 10 11  1  0  0  0  0
 10  9  2  0  0  0  0
 11  6  2  0  0  0  0
 12 11  1  0  0  0  0
 14 12  1  0  0  0  0
 15 25  1  0  0  0  0
 16 15  1  0  0  0  0
 17 16  2  0  0  0  0
 18 16  1  1  0  0  0
 18 19  1  0  0  0  0
 19 20  1  0  0  0  0
 19 26  1  1  0  0  0
 20 21  1  0  0  0  0
 21 22  2  0  0  0  0
 23 22  1  0  0  0  0
 24 23  2  0  0  0  0
 25 20  2  0  0  0  0
 25 24  1  0  0  0  0
 27 26  1  0  0  0  0
 28 15  1  0  0  0  0
 30 31  1  0  0  0  0
 31 29  1  0  0  0  0
 32 31  1  0  0  0  0
 34 33  1  0  0  0  0
 34 35  1  0  0  0  0
 36 38  1  0  0  0  0
 36 35  1  0  0  0  0
 37 36  1  0  0  0  0
 39 36  1  0  0  0  0
M  END
>  <minimizedAffinity>
-0.684679925

$$$$

 OpenBabel09122220023D

 39 41  0  0  1  0  0  0  0  0999 V2000
    4.6520   -5.6940    6.1430 C   0  0  1  0  0  3  0  0  0  0  0  0
    4.5930   -5.8270    4.8200 N   0  0  0  0  0  0  0  0  0  0  0  0
    4.7050   -4.5890    3.7700 S   0  0  0  0  0  0  0  0  0  0  0  0
    6.0810   -4.2310    3.5110 O   0  0  0  0  0  0  0  0  0  0  0  0
    3.7920   -4.8080    2.6670 O   0  0  0  0  0  0  0  0  0  0  0  0
    3.9780   -3.2610    4.6930 C   0  0  0  0  0  0  0  0  0  0  0  0
    2.7660   -2.0780    4.0850 C   0  0  0  0  0  3  0  0  0  0  0  0
    1.9420   -0.9870    5.2690 C   0  0  0  0  0  0  0  0  0  0  0  0
    2.3840   -1.0430    7.0280 C   0  0  0  0  0  3  0  0  0  0  0  0
    3.6350   -2.2280    7.6090 C   0  0  0  0  0  3  0  0  0  0  0  0
    4.4340   -3.3230    6.4280 C   0  0  0  0  0  0  0  0  0  0  0  0
    5.1520   -4.5020    6.7800 N   0  0  0  0  0  0  0  0  0  0  0  0
    4.0330   -6.5830    4.4470 H   0  0  0  0  0  0  0  0  0  0  0  0
    5.3400   -4.5680    7.7820 H   0  0  0  0  0  0  0  0  0  0  0  0
    3.0620   -7.9100    5.2360 N   0  0  0  0  0  0  0  0  0  0  0  0
    3.5930   -7.7550    6.5210 C   0  0  0  0  0  0  0  0  0  0  0  0
    4.4710   -8.4360    7.0400 O   0  0  0  0  0  0  0  0  0  0  0  0
    3.4670   -6.2960    6.8940 C   0  0  2  0  0  3  0  0  0  0  0  0
    2.2030   -5.8320    6.7750 C   0  0  2  0  0  3  0  0  0  0  0  0
    1.1900   -6.6770    6.0920 C   0  0  0  0  0  0  0  0  0  0  0  0
   -0.1770   -6.4170    6.1270 C   0  0  0  0  0  3  0  0  0  0  0  0
   -1.0250   -7.1550    5.3060 C   0  0  0  0  0  3  0  0  0  0  0  0
   -0.4710   -8.1010    4.4530 C   0  0  0  0  0  3  0  0  0  0  0  0
    0.8540   -8.3680    4.3720 N   0  0  0  0  0  0  0  0  0  0  0  0
    1.6530   -7.6750    5.2070 C   0  0  0  0  0  0  0  0  0  0  0  0
    1.8920   -4.4880    6.8130 O   0  0  0  0  0  0  0  0  0  0  0  0
    2.4590   -4.0380    7.4670 H   0  0  0  0  0  0  0  0  0  0  0  0
    3.9150   -8.4860    3.9960 C   0  0  0  0  0  1  0  0  0  0  0  0
    3.9110   -8.1510    1.8250 C   0  0  0  0  0  1  0  0  0  0  0  0
    4.5190   -6.6430   -0.3870 C   0  0  0  0  0  1  0  0  0  0  0  0
    5.0870   -7.6990    0.5840 C   0  0  0  0  0  3  0  0  0  0  0  0
    6.3250   -7.0700    1.2650 C   0  0  0  0  0  1  0  0  0  0  0  0
    0.9770   -0.0770    4.9370 O   0  0  0  0  0  0  0  0  0  0  0  0
   -0.2500   -0.6600    4.4950 C   0  0  0  0  0  2  0  0  0  0  0  0
   -0.4300   -0.2820    3.0240 C   0  0  0  0  0  2  0  0  0  0  0  0
   -1.8830   -0.2630    2.6860 N   0  0  0  0  0  4  0  0  0  0  0  0
   -2.3930    0.4830    3.1750 H   0  0  0  0  0  0  0  0  0  0  0  0
   -2.0400   -0.1460    1.6770 H   0  0  0  0  0  0  0  0  0  0  0  0
   -2.3110   -1.1610    2.9660 H   0  0  0  0  0  0  0  0  0  0  0  0
  1  2  1  6  0  0  0
  1 12  1  0  0  0  0
  1 18  1  0  0  0  0
  3  6  1  0  0  0  0
  3  2  1  0  0  0  0
  4  3  2  0  0  0  0
  5  3  2  0  0  0  0
  6 11  1  0  0  0  0
  7  6  2  0  0  0  0
  7  8  1  0  0  0  0
  8  9  2  0  0  0  0
  9 10  1  0  0  0  0
 11 12  1  0  0  0  0
 11 10  2  0  0  0  0
 12 14  1  0  0  0  0
 13  2  1  0  0  0  0
 15 16  1  0  0  0  0
 16 17  2  0  0  0  0
 18 16  1  6  0  0  0
 19 26  1  6  0  0  0
 19 18  1  0  0  0  0
 20 21  1  0  0  0  0
 20 19  1  0  0  0  0
 22 21  2  0  0  0  0
 23 22  1  0  0  0  0
 24 23  2  0  0  0  0
 24 25  1  0  0  0  0
 25 15  1  0  0  0  0
 25 20  2  0  0  0  0
 26 27  1  0  0  0  0
 28 15  1  0  0  0  0
 30 31  1  0  0  0  0
 31 32  1  0  0  0  0
 31 29  1  0  0  0  0
 33  8  1  0  0  0  0
 34 33  1  0  0  0  0
 35 34  1  0  0  0  0
 36 39  1  0  0  0  0
 36 35  1  0  0  0  0
 36 37  1  0  0  0  0
 38 36  1  0  0  0  0
M  END
>  <minimizedAffinity>
-0.372720271

$$$$

 OpenBabel09122220023D

 39 41  0  0  1  0  0  0  0  0999 V2000
    5.8640   -4.8580    4.5740 C   0  0  1  0  0  3  0  0  0  0  0  0
    6.8220   -3.9990    4.9120 N   0  0  0  0  0  0  0  0  0  0  0  0
    6.8280   -3.1320    6.2900 S   0  0  0  0  0  0  0  0  0  0  0  0
    7.3450   -3.8970    7.4010 O   0  0  0  0  0  0  0  0  0  0  0  0
    7.3420   -1.8050    6.0210 O   0  0  0  0  0  0  0  0  0  0  0  0
    5.0950   -2.8880    6.5750 C   0  0  0  0  0  0  0  0  0  0  0  0
    4.2970   -1.3420    7.0340 C   0  0  0  0  0  3  0  0  0  0  0  0
    2.4910   -1.2460    6.9930 C   0  0  0  0  0  0  0  0  0  0  0  0
    1.5060   -2.7080    6.5620 C   0  0  0  0  0  3  0  0  0  0  0  0
    2.3390   -4.2670    6.1340 C   0  0  0  0  0  3  0  0  0  0  0  0
    4.1360   -4.3460    6.1570 C   0  0  0  0  0  0  0  0  0  0  0  0
    4.9050   -5.3640    5.5240 N   0  0  0  0  0  0  0  0  0  0  0  0
    7.3100   -3.5190    4.1670 H   0  0  0  0  0  0  0  0  0  0  0  0
    4.3390   -6.1580    5.2190 H   0  0  0  0  0  0  0  0  0  0  0  0
    4.4990   -6.8200    2.9770 N   0  0  0  0  0  0  0  0  0  0  0  0
    4.0440   -5.5260    3.2510 C   0  0  0  0  0  0  0  0  0  0  0  0
    3.0690   -5.2190    3.9300 O   0  0  0  0  0  0  0  0  0  0  0  0
    5.2380   -4.6020    3.2050 C   0  0  2  0  0  3  0  0  0  0  0  0
    5.9280   -4.6950    2.0470 C   0  0  2  0  0  3  0  0  0  0  0  0
    5.6120   -5.8040    1.1100 C   0  0  0  0  0  0  0  0  0  0  0  0
    6.0770   -5.8590   -0.2000 C   0  0  0  0  0  3  0  0  0  0  0  0
    5.8830   -7.0240   -0.9370 C   0  0  0  0  0  3  0  0  0  0  0  0
    5.2620   -8.1050   -0.3240 C   0  0  0  0  0  3  0  0  0  0  0  0
    4.8170   -8.1010    0.9550 N   0  0  0  0  0  0  0  0  0  0  0  0
    4.9740   -6.9490    1.6360 C   0  0  0  0  0  0  0  0  0  0  0  0
    7.1830   -4.1460    1.8770 O   0  0  0  0  0  0  0  0  0  0  0  0
    7.2330   -3.2900    2.3430 H   0  0  0  0  0  0  0  0  0  0  0  0
    4.3110   -8.0530    3.9990 C   0  0  0  0  0  1  0  0  0  0  0  0
    3.1250   -8.3900    5.8170 C   0  0  0  0  0  1  0  0  0  0  0  0
    1.2240   -7.5620    7.6160 C   0  0  0  0  0  1  0  0  0  0  0  0
    1.4210   -8.3120    6.2830 C   0  0  0  0  0  3  0  0  0  0  0  0
    0.6370   -7.5310    5.2030 C   0  0  0  0  0  1  0  0  0  0  0  0
    1.7710   -0.1200    7.2790 O   0  0  0  0  0  0  0  0  0  0  0  0
    1.2290    0.5360    6.1320 C   0  0  0  0  0  2  0  0  0  0  0  0
    1.3990   -0.4110    4.9430 C   0  0  0  0  0  2  0  0  0  0  0  0
    0.1060   -0.5330    4.2100 N   0  0  0  0  0  4  0  0  0  0  0  0
   -0.1780    0.3470    3.7610 H   0  0  0  0  0  0  0  0  0  0  0  0
    0.1420   -1.2620    3.4860 H   0  0  0  0  0  0  0  0  0  0  0  0
   -0.6410   -0.7910    4.8760 H   0  0  0  0  0  0  0  0  0  0  0  0
  1  2  1  1  0  0  0
  1 12  1  0  0  0  0
  2  3  1  0  0  0  0
  3  6  1  0  0  0  0
  3  4  2  0  0  0  0
  5  3  2  0  0  0  0
  6  7  1  0  0  0  0
  8  7  2  0  0  0  0
  8 33  1  0  0  0  0
  9  8  1  0  0  0  0
 10 11  1  0  0  0  0
 10  9  2  0  0  0  0
 11  6  2  0  0  0  0
 12 11  1  0  0  0  0
 13  2  1  0  0  0  0
 14 12  1  0  0  0  0
 15 16  1  0  0  0  0
 15 28  1  0  0  0  0
 16 17  2  0  0  0  0
 18 16  1  6  0  0  0
 18  1  1  0  0  0  0
 19 26  1  1  0  0  0
 19 18  1  0  0  0  0
 20 25  1  0  0  0  0
 20 19  1  0  0  0  0
 21 20  2  0  0  0  0
 22 23  2  0  0  0  0
 22 21  1  0  0  0  0
 23 24  1  0  0  0  0
 24 25  2  0  0  0  0
 25 15  1  0  0  0  0
 26 27  1  0  0  0  0
 29 31  1  0  0  0  0
 31 30  1  0  0  0  0
 32 31  1  0  0  0  0
 34 33  1  0  0  0  0
 35 34  1  0  0  0  0
 36 39  1  0  0  0  0
 36 35  1  0  0  0  0
 37 36  1  0  0  0  0
 38 36  1  0  0  0  0
M  END
>  <minimizedAffinity>
0.82103771

$$$$

 OpenBabel09122220023D

 39 41  0  0  1  0  0  0  0  0999 V2000
    4.1600   -6.5940    4.8900 C   0  0  1  0  0  3  0  0  0  0  0  0
    3.8200   -5.4510    4.3000 N   0  0  0  0  0  0  0  0  0  0  0  0
    2.6260   -4.4740    4.8180 S   0  0  0  0  0  0  0  0  0  0  0  0
    3.0710   -3.6050    5.8830 O   0  0  0  0  0  0  0  0  0  0  0  0
    1.9250   -3.9220    3.6770 O   0  0  0  0  0  0  0  0  0  0  0  0
    1.4850   -5.6340    5.5230 C   0  0  0  0  0  0  0  0  0  0  0  0
   -0.2960   -5.6640    5.2720 C   0  0  0  0  0  3  0  0  0  0  0  0
   -1.2340   -7.1000    5.8480 C   0  0  0  0  0  0  0  0  0  0  0  0
   -0.3950   -8.4510    6.7230 C   0  0  0  0  0  3  0  0  0  0  0  0
    1.4020   -8.3780    6.9900 C   0  0  0  0  0  3  0  0  0  0  0  0
    2.3280   -6.9560    6.3960 C   0  0  0  0  0  0  0  0  0  0  0  0
    3.7430   -6.9300    6.2280 N   0  0  0  0  0  0  0  0  0  0  0  0
    3.9540   -5.3780    3.3000 H   0  0  0  0  0  0  0  0  0  0  0  0
    4.2100   -7.7280    6.6620 H   0  0  0  0  0  0  0  0  0  0  0  0
    5.2510   -6.6580    2.2320 N   0  0  0  0  0  0  0  0  0  0  0  0
    5.4660   -7.6160    3.2280 C   0  0  0  0  0  0  0  0  0  0  0  0
    6.5230   -7.8530    3.8020 O   0  0  0  0  0  0  0  0  0  0  0  0
    4.1610   -7.8080    3.9650 C   0  0  2  0  0  3  0  0  0  0  0  0
    3.1340   -8.1120    3.1410 C   0  0  2  0  0  3  0  0  0  0  0  0
    3.3280   -7.9790    1.6740 C   0  0  0  0  0  0  0  0  0  0  0  0
    2.4390   -8.4890    0.7320 C   0  0  0  0  0  3  0  0  0  0  0  0
    2.6090   -8.1540   -0.6080 C   0  0  0  0  0  3  0  0  0  0  0  0
    3.6420   -7.2910   -0.9530 C   0  0  0  0  0  3  0  0  0  0  0  0
    4.5130   -6.7550   -0.0660 N   0  0  0  0  0  0  0  0  0  0  0  0
    4.3590   -7.1280    1.2200 C   0  0  0  0  0  0  0  0  0  0  0  0
    1.8150   -8.0820    3.5460 O   0  0  0  0  0  0  0  0  0  0  0  0
    1.7450   -8.4090    4.4630 H   0  0  0  0  0  0  0  0  0  0  0  0
    6.0790   -5.2770    2.1460 C   0  0  0  0  0  1  0  0  0  0  0  0
    6.9270   -3.8850    3.6190 C   0  0  0  0  0  1  0  0  0  0  0  0
    6.1620   -4.0960    6.2480 C   0  0  0  0  0  1  0  0  0  0  0  0
    6.3890   -3.0870    5.1030 C   0  0  0  0  0  3  0  0  0  0  0  0
    7.4840   -2.1030    5.5740 C   0  0  0  0  0  1  0  0  0  0  0  0
   -2.5810   -7.2590    5.6810 O   0  0  0  0  0  0  0  0  0  0  0  0
   -3.3590   -6.1330    6.0910 C   0  0  0  0  0  2  0  0  0  0  0  0
   -4.0740   -6.5210    7.3870 C   0  0  0  0  0  2  0  0  0  0  0  0
   -5.2700   -5.6500    7.5790 N   0  0  0  0  0  4  0  0  0  0  0  0
   -5.9920   -5.8070    6.8650 H   0  0  0  0  0  0  0  0  0  0  0  0
   -5.7000   -5.7880    8.5030 H   0  0  0  0  0  0  0  0  0  0  0  0
   -4.9850   -4.6590    7.5120 H   0  0  0  0  0  0  0  0  0  0  0  0
  1  2  1  6  0  0  0
  1 12  1  0  0  0  0
  2  3  1  0  0  0  0
  3  6  1  0  0  0  0
  3  4  2  0  0  0  0
  5  3  2  0  0  0  0
  6 11  1  0  0  0  0
  7  6  2  0  0  0  0
  7  8  1  0  0  0  0
  8  9  2  0  0  0  0
  9 10  1  0  0  0  0
 11 10  2  0  0  0  0
 12 11  1  0  0  0  0
 12 14  1  0  0  0  0
 13  2  1  0  0  0  0
 15 16  1  0  0  0  0
 16 17  2  0  0  0  0
 18 16  1  6  0  0  0
 18  1  1  0  0  0  0
 19 26  1  1  0  0  0
 19 18  1  0  0  0  0
 20 19  1  0  0  0  0
 21 20  2  0  0  0  0
 22 21  1  0  0  0  0
 23 22  2  0  0  0  0
 23 24  1  0  0  0  0
 24 25  2  0  0  0  0
 25 20  1  0  0  0  0
 25 15  1  0  0  0  0
 26 27  1  0  0  0  0
 28 15  1  0  0  0  0
 29 31  1  0  0  0  0
 31 32  1  0  0  0  0
 31 30  1  0  0  0  0
 33  8  1  0  0  0  0
 33 34  1  0  0  0  0
 34 35  1  0  0  0  0
 35 36  1  0  0  0  0
 36 38  1  0  0  0  0
 37 36  1  0  0  0  0
 39 36  1  0  0  0  0
M  END
>  <minimizedAffinity>
1.36549091

$$$$
