
 OpenBabel09132204463D

 39 40  0  0  0  0  0  0  0  0999 V2000
    5.5750   -6.3550    2.1450 C   0  0  0  0  0  0  0  0  0  0  0  0
    5.8630   -5.1020    1.7200 C   0  0  0  0  0  2  0  0  0  0  0  0
    7.1860   -4.5830    1.3620 C   0  0  0  0  0  0  0  0  0  0  0  0
    7.8660   -3.7500    2.2570 C   0  0  0  0  0  3  0  0  0  0  0  0
    9.1160   -3.2290    1.9180 C   0  0  0  0  0  3  0  0  0  0  0  0
    9.6980   -3.5710    0.6970 C   0  0  0  0  0  0  0  0  0  0  0  0
    9.0260   -4.3990   -0.2040 C   0  0  0  0  0  3  0  0  0  0  0  0
    7.7690   -4.9060    0.1310 C   0  0  0  0  0  3  0  0  0  0  0  0
   10.9180   -3.0120    0.3880 O   0  0  0  0  0  0  0  0  0  0  0  0
   10.8880   -1.9500   -0.4900 C   0  0  0  0  0  0  0  0  0  0  0  0
   10.0800   -0.8370   -0.2310 C   0  0  0  0  0  3  0  0  0  0  0  0
   10.0170    0.2100   -1.1520 C   0  0  0  0  0  3  0  0  0  0  0  0
   10.7500    0.1450   -2.3360 C   0  0  0  0  0  3  0  0  0  0  0  0
   11.5440   -0.9710   -2.6060 C   0  0  0  0  0  3  0  0  0  0  0  0
   11.6070   -2.0230   -1.6870 C   0  0  0  0  0  0  0  0  0  0  0  0
   12.6980   -3.5180   -2.1040 Br  0  0  0  0  0  0  0  0  0  0  0  0
    3.3780   -7.2050    1.6450 O   0  0  0  0  0  0  0  0  0  0  0  0
    4.0520   -6.4870    2.4060 C   0  0  0  0  0  0  0  0  0  0  0  0
    3.3690   -5.9680    3.4800 N   0  0  0  0  0  0  0  0  0  0  0  0
    2.3980   -6.2270    3.5150 H   0  0  0  0  0  0  0  0  0  0  0  0
    3.9710   -5.3140    4.6080 C   0  0  0  0  0  2  0  0  0  0  0  0
    5.4210   -3.8990    4.7730 C   0  0  0  0  0  1  0  0  0  0  0  0
    5.3590   -2.7540    6.1530 C   0  0  0  0  0  3  0  0  0  0  0  0
    4.0700   -2.9240    7.3100 C   0  0  0  0  0  3  0  0  0  0  0  0
    2.8370   -4.1810    7.2390 C   0  0  0  0  0  3  0  0  0  0  0  0
    2.7560   -5.4000    5.9640 C   0  0  0  0  0  0  0  0  0  0  0  0
    1.7310   -6.4900    6.1110 C   0  0  0  0  0  0  0  0  0  0  0  0
    0.7810   -6.4810    5.2650 O   0  0  0  0  0  0  0  0  0  0  0  0
    1.8710   -7.3130    7.0630 O   0  0  0  0  0  1  0  0  0  0  0  0
    6.6240   -7.2840    2.2390 N   0  0  0  0  0  4  0  0  0  0  0  0
    6.8150   -8.5900    2.6820 C   0  0  0  0  0  0  0  0  0  0  0  0
    7.8880   -9.1580    2.4730 O   0  0  0  0  0  0  0  0  0  0  0  0
    7.5310   -6.9030    1.9980 H   0  0  0  0  0  0  0  0  0  0  0  0
    5.6410   -9.3300    3.2960 C   0  0  0  0  0  2  0  0  0  0  0  0
    4.3530   -9.1520    4.8580 C   0  0  0  0  0  1  0  0  0  0  0  0
    2.6700   -9.7480    4.6470 C   0  0  0  0  0  3  0  0  0  0  0  0
    2.2350  -10.4940    3.1240 C   0  0  0  0  0  3  0  0  0  0  0  0
    3.3590  -10.7430    1.7780 C   0  0  0  0  0  3  0  0  0  0  0  0
    5.0350  -10.2040    1.8210 C   0  0  0  0  0  3  0  0  0  0  0  0
  1 30  2  0  0  0  0
  1 18  1  0  0  0  0
  2  1  1  0  0  0  0
  3  2  1  0  0  0  0
  3  4  1  0  0  0  0
  5  4  2  0  0  0  0
  6  5  1  0  0  0  0
  7  8  1  0  0  0  0
  7  6  2  0  0  0  0
  8  3  2  0  0  0  0
  9  6  1  0  0  0  0
 10 11  1  0  0  0  0
 10  9  1  0  0  0  0
 12 11  2  0  0  0  0
 13 12  1  0  0  0  0
 14 13  2  0  0  0  0
 14 15  1  0  0  0  0
 15 10  2  0  0  0  0
 16 15  1  0  0  0  0
 17 18  2  0  0  0  0
 18 19  1  0  0  0  0
 19 20  1  0  0  0  0
 19 21  1  0  0  0  0
 21 26  1  0  0  0  0
 22 23  1  0  0  0  0
 23 24  2  0  0  0  0
 25 24  1  0  0  0  0
 26 27  1  0  0  0  0
 26 25  2  0  0  0  0
 27 29  1  0  0  0  0
 28 27  2  0  0  0  0
 30 31  1  0  0  0  0
 31 34  1  0  0  0  0
 32 31  2  0  0  0  0
 33 30  1  0  0  0  0
 36 35  1  0  0  0  0
 37 36  2  0  0  0  0
 38 39  2  0  0  0  0
 38 37  1  0  0  0  0
 39 34  1  0  0  0  0
M  END
>  <minimizedAffinity>
-6.78729916

$$$$
