
 OpenBabel09132204463D

 39 40  0  0  0  0  0  0  0  0999 V2000
    4.3390   -6.6330    3.1650 C   0  0  0  0  0  0  0  0  0  0  0  0
    4.0480   -6.4790    4.4790 C   0  0  0  0  0  2  0  0  0  0  0  0
    2.8980   -7.0430    5.1910 C   0  0  0  0  0  0  0  0  0  0  0  0
    1.6400   -6.4470    5.0500 C   0  0  0  0  0  3  0  0  0  0  0  0
    0.5410   -6.9580    5.7420 C   0  0  0  0  0  3  0  0  0  0  0  0
    0.6960   -8.0870    6.5460 C   0  0  0  0  0  0  0  0  0  0  0  0
    1.9490   -8.6870    6.6960 C   0  0  0  0  0  3  0  0  0  0  0  0
    3.0490   -8.1640    6.0150 C   0  0  0  0  0  3  0  0  0  0  0  0
   -0.4060   -8.5420    7.2350 O   0  0  0  0  0  0  0  0  0  0  0  0
   -1.1290   -9.5410    6.6200 C   0  0  0  0  0  0  0  0  0  0  0  0
   -0.6270  -10.8460    6.5570 C   0  0  0  0  0  3  0  0  0  0  0  0
   -1.3420  -11.8390    5.8880 C   0  0  0  0  0  3  0  0  0  0  0  0
   -2.5540  -11.5320    5.2700 C   0  0  0  0  0  3  0  0  0  0  0  0
   -3.0510  -10.2280    5.3150 C   0  0  0  0  0  3  0  0  0  0  0  0
   -2.3340   -9.2300    5.9830 C   0  0  0  0  0  0  0  0  0  0  0  0
   -3.0510   -7.4740    6.0110 Br  0  0  0  0  0  0  0  0  0  0  0  0
    6.4750   -6.4300    2.0710 O   0  0  0  0  0  0  0  0  0  0  0  0
    5.6510   -5.8780    2.8230 C   0  0  0  0  0  0  0  0  0  0  0  0
    5.9570   -4.5890    3.1850 N   0  0  0  0  0  0  0  0  0  0  0  0
    6.8220   -4.2480    2.8010 H   0  0  0  0  0  0  0  0  0  0  0  0
    5.0640   -3.6770    3.8420 C   0  0  0  0  0  2  0  0  0  0  0  0
    3.0730   -3.3110    3.6470 C   0  0  0  0  0  1  0  0  0  0  0  0
    2.1490   -2.7650    5.0850 C   0  0  0  0  0  3  0  0  0  0  0  0
    3.0080   -2.5440    6.5820 C   0  0  0  0  0  3  0  0  0  0  0  0
    4.7440   -2.7820    6.7730 C   0  0  0  0  0  3  0  0  0  0  0  0
    5.8080   -3.3000    5.4620 C   0  0  0  0  0  0  0  0  0  0  0  0
    7.2860   -3.3270    5.7390 C   0  0  0  0  0  0  0  0  0  0  0  0
    7.6240   -3.3570    6.9640 O   0  0  0  0  0  1  0  0  0  0  0  0
    8.0760   -3.2980    4.7490 O   0  0  0  0  0  0  0  0  0  0  0  0
    3.4860   -7.4280    2.3830 N   0  0  0  0  0  4  0  0  0  0  0  0
    3.1860   -8.7780    2.2240 C   0  0  0  0  0  0  0  0  0  0  0  0
    2.2410   -9.1170    1.5110 O   0  0  0  0  0  0  0  0  0  0  0  0
    2.9910   -6.9140    1.6650 H   0  0  0  0  0  0  0  0  0  0  0  0
    3.9530   -9.7980    3.0470 C   0  0  0  0  0  2  0  0  0  0  0  0
    5.6740   -9.9330    4.1200 C   0  0  0  0  0  1  0  0  0  0  0  0
    5.6920  -10.9900    5.5740 C   0  0  0  0  0  3  0  0  0  0  0  0
    4.2410  -11.8870    5.9690 C   0  0  0  0  0  3  0  0  0  0  0  0
    2.7560  -11.8580    5.0050 C   0  0  0  0  0  3  0  0  0  0  0  0
    2.5730  -10.8640    3.5620 C   0  0  0  0  0  3  0  0  0  0  0  0
  1  2  1  0  0  0  0
  2  3  1  0  0  0  0
  3  8  1  0  0  0  0
  4  3  2  0  0  0  0
  4  5  1  0  0  0  0
  5  6  2  0  0  0  0
  6  7  1  0  0  0  0
  6  9  1  0  0  0  0
  8  7  2  0  0  0  0
 10  9  1  0  0  0  0
 11 10  1  0  0  0  0
 12 11  2  0  0  0  0
 13 14  2  0  0  0  0
 13 12  1  0  0  0  0
 14 15  1  0  0  0  0
 15 16  1  0  0  0  0
 15 10  2  0  0  0  0
 17 18  2  0  0  0  0
 18  1  1  0  0  0  0
 18 19  1  0  0  0  0
 19 21  1  0  0  0  0
 20 19  1  0  0  0  0
 21 26  1  0  0  0  0
 22 23  1  0  0  0  0
 23 24  2  0  0  0  0
 24 25  1  0  0  0  0
 26 27  1  0  0  0  0
 26 25  2  0  0  0  0
 27 28  1  0  0  0  0
 29 27  2  0  0  0  0
 30  1  2  0  0  0  0
 31 30  1  0  0  0  0
 31 34  1  0  0  0  0
 32 31  2  0  0  0  0
 33 30  1  0  0  0  0
 34 39  1  0  0  0  0
 35 36  1  0  0  0  0
 36 37  2  0  0  0  0
 38 37  1  0  0  0  0
 39 38  2  0  0  0  0
M  END
>  <minimizedAffinity>
-7.16985703

$$$$
