REMARK  Name = 
REMARK  13 active torsions:
REMARK  status: ('A' for Active; 'I' for Inactive)
REMARK    1  A    between atoms: C_1  and  N_2
REMARK    2  A    between atoms: N_2  and  C_3
REMARK    3  A    between atoms: C_4  and  C_6
REMARK    4  A    between atoms: C_9  and  C_10
REMARK    5  A    between atoms: C_10  and  O_11
REMARK    6  A    between atoms: C_10  and  C_37
REMARK    7  A    between atoms: O_11  and  C_12
REMARK    8  A    between atoms: C_15  and  C_16
REMARK    9  A    between atoms: C_20  and  C_21
REMARK   10  A    between atoms: N_27  and  C_28
REMARK   11  A    between atoms: C_40  and  C_41
REMARK   12  A    between atoms: N_43  and  C_44
REMARK   13  A    between atoms: N_43  and  C_45
REMARK                            x       y       z     vdW  Elec       q    Type
REMARK                         _______ _______ _______ _____ _____    ______ ____
ROOT
ATOM      1  C   UNL     1      -1.975  -3.427  -7.537  0.00  0.00    +0.125 A 
ATOM      2  C   UNL     1      -3.343  -3.668  -7.663  0.00  0.00    +0.046 A 
ATOM      3  C   UNL     1      -4.184  -2.643  -8.098  0.00  0.00    +0.018 A 
ATOM      4  C   UNL     1      -3.657  -1.389  -8.444  0.00  0.00    +0.053 A 
ATOM      5  C   UNL     1      -2.280  -1.181  -8.328  0.00  0.00    +0.137 A 
ATOM      6  F   UNL     1      -1.744   0.015  -8.612  0.00  0.00    -0.205 F 
ATOM      7  C   UNL     1      -1.433  -2.197  -7.896  0.00  0.00    +0.084 A 
ENDROOT
BRANCH   4   8
ATOM      8  C   UNL     1      -4.566  -0.313  -8.821  0.00  0.00    +0.145 A 
ATOM      9  N   UNL     1      -5.384   0.248  -7.950  0.00  0.00    -0.227 NA
ATOM     10  C   UNL     1      -6.057   1.230  -8.628  0.00  0.00    +0.090 A 
ATOM     11  C   UNL     1      -7.017   2.141  -8.162  0.00  0.00    +0.039 A 
ATOM     12  C   UNL     1      -7.582   3.079  -9.049  0.00  0.00    -0.001 A 
ATOM     13  C   UNL     1      -7.163   3.079 -10.389  0.00  0.00    +0.012 A 
ATOM     14  C   UNL     1      -6.209   2.175 -10.874  0.00  0.00    +0.028 A 
ATOM     15  C   UNL     1      -5.675   1.253  -9.964  0.00  0.00    +0.069 A 
ATOM     16  N   UNL     1      -4.756   0.222 -10.083  0.00  0.00    -0.320 N 
BRANCH  16  17
ATOM     17  C   UNL     1      -4.191  -0.197 -11.364  0.00  0.00    +0.089 C 
ATOM     18  C   UNL     1      -2.812   0.419 -11.639  0.00  0.00    +0.025 C 
ATOM     19  C   UNL     1      -2.336   0.093 -13.055  0.00  0.00    +0.002 C 
ATOM     20  C   UNL     1      -2.354  -1.408 -13.330  0.00  0.00    +0.000 C 
ATOM     21  C   UNL     1      -3.724  -2.022 -13.047  0.00  0.00    +0.002 C 
ATOM     22  C   UNL     1      -4.190  -1.713 -11.624  0.00  0.00    +0.025 C 
ENDBRANCH  16  17
BRANCH  12  23
ATOM     23  C   UNL     1      -8.624   4.069  -8.565  0.00  0.00    +0.072 C 
ATOM     24  O   UNL     1      -8.961   4.010  -7.341  0.00  0.00    -0.545 OA
ATOM     25  O   UNL     1      -9.088   4.885  -9.424  0.00  0.00    -0.545 OA
ENDBRANCH  12  23
ENDBRANCH   4   8
BRANCH   1  26
ATOM     26  O   UNL     1      -1.130  -4.405  -7.086  0.00  0.00    -0.479 OA
BRANCH  26  27
ATOM     27  C   UNL     1      -1.263  -4.621  -5.664  0.00  0.00    +0.234 C 
BRANCH  27  31
ATOM     28  C   UNL     1       1.526  -1.993  -3.629  0.00  0.00    +0.037 A 
ATOM     29  C   UNL     1       2.002  -3.127  -4.293  0.00  0.00    +0.013 A 
ATOM     30  C   UNL     1       1.109  -3.981  -4.944  0.00  0.00    +0.008 A 
ATOM     31  C   UNL     1      -0.271  -3.715  -4.937  0.00  0.00    -0.003 A 
ATOM     32  C   UNL     1      -0.731  -2.550  -4.299  0.00  0.00    +0.008 A 
ATOM     33  C   UNL     1       0.162  -1.687  -3.660  0.00  0.00    +0.013 A 
BRANCH  28  37
ATOM     34  C   UNL     1       3.091   0.436  -1.155  0.00  0.00    +0.132 C 
ATOM     35  N   UNL     1       2.263  -0.634  -1.683  0.00  0.00    -0.304 N 
ATOM     36  C   UNL     1       1.290  -1.207  -0.765  0.00  0.00    +0.132 C 
ATOM     37  C   UNL     1       2.503  -1.084  -2.981  0.00  0.00    +0.246 C 
ATOM     38  O   UNL     1       3.496  -0.764  -3.631  0.00  0.00    -0.270 OA
ENDBRANCH  28  37
ENDBRANCH  27  31
BRANCH  27  39
ATOM     39  C   UNL     1      -1.074  -6.103  -5.327  0.00  0.00    -0.003 A 
ATOM     40  C   UNL     1      -0.581  -7.026  -6.266  0.00  0.00    +0.008 A 
ATOM     41  C   UNL     1      -0.403  -8.368  -5.922  0.00  0.00    +0.013 A 
ATOM     42  C   UNL     1      -0.703  -8.798  -4.628  0.00  0.00    +0.037 A 
ATOM     43  C   UNL     1      -1.223  -7.904  -3.689  0.00  0.00    +0.013 A 
ATOM     44  C   UNL     1      -1.401  -6.563  -4.037  0.00  0.00    +0.008 A 
BRANCH  42  45
ATOM     45  C   UNL     1      -0.516 -10.226  -4.286  0.00  0.00    +0.246 C 
ATOM     46  O   UNL     1      -1.100 -11.056  -4.979  0.00  0.00    -0.270 OA
ATOM     47  N   UNL     1       0.298 -10.558  -3.204  0.00  0.00    -0.304 N 
ATOM     48  C   UNL     1       1.197  -9.638  -2.522  0.00  0.00    +0.132 C 
ATOM     49  C   UNL     1       0.327 -11.938  -2.753  0.00  0.00    +0.132 C 
ENDBRANCH  42  45
ENDBRANCH  27  39
ENDBRANCH  26  27
ENDBRANCH   1  26
TORSDOF 9
