
 OpenBabel09132200243D

 49 54  0  0  1  0  0  0  0  0999 V2000
    6.3660   -5.3870  -13.5030 C   0  0  0  0  0  0  0  0  0  0  0  0
    5.9900   -5.8580  -12.2450 C   0  0  0  0  0  3  0  0  0  0  0  0
    5.9900   -7.2320  -11.9980 C   0  0  0  0  0  3  0  0  0  0  0  0
    6.3990   -8.1330  -12.9920 C   0  0  0  0  0  0  0  0  0  0  0  0
    6.7900   -7.6330  -14.2370 C   0  0  0  0  0  0  0  0  0  0  0  0
    7.1510   -8.4650  -15.2250 F   0  0  0  0  0  0  0  0  0  0  0  0
    6.7950   -6.2650  -14.4930 C   0  0  0  0  0  3  0  0  0  0  0  0
    6.3150   -9.5660  -12.7340 C   0  0  0  0  0  0  0  0  0  0  0  0
    6.9860  -10.1400  -11.7530 N   0  0  0  0  0  0  0  0  0  0  0  0
    6.6500  -11.4680  -11.7790 C   0  0  0  0  0  0  0  0  0  0  0  0
    7.0590  -12.5100  -10.9340 C   0  0  0  0  0  3  0  0  0  0  0  0
    6.5780  -13.8170  -11.1480 C   0  0  0  0  0  0  0  0  0  0  0  0
    5.6900  -14.0430  -12.2120 C   0  0  0  0  0  3  0  0  0  0  0  0
    5.2730  -13.0170  -13.0690 C   0  0  0  0  0  3  0  0  0  0  0  0
    5.7780  -11.7320  -12.8280 C   0  0  0  0  0  0  0  0  0  0  0  0
    5.6150  -10.5110  -13.4630 N   0  0  0  0  0  0  0  0  0  0  0  0
    4.8720  -10.3560  -14.7120 C   0  0  0  0  0  3  0  0  0  0  0  0
    5.7650  -10.4600  -15.9560 C   0  0  0  0  0  2  0  0  0  0  0  0
    4.9820  -10.1240  -17.2260 C   0  0  0  0  0  2  0  0  0  0  0  0
    3.7210  -10.9740  -17.3580 C   0  0  0  0  0  2  0  0  0  0  0  0
    2.8370  -10.8780  -16.1160 C   0  0  0  0  0  2  0  0  0  0  0  0
    3.6160  -11.2330  -14.8490 C   0  0  0  0  0  2  0  0  0  0  0  0
    7.0120  -14.9570  -10.2480 C   0  0  0  0  0  0  0  0  0  0  0  0
    6.8510  -14.8070   -8.9960 O   0  0  0  0  0  1  0  0  0  0  0  0
    7.5100  -15.9820  -10.8140 O   0  0  0  0  0  0  0  0  0  0  0  0
    6.3490   -4.0470  -13.7820 O   0  0  0  0  0  0  0  0  0  0  0  0
    6.2220   -3.7910  -15.1980 C   0  0  2  0  0  3  0  0  0  0  0  0
    7.0090    0.4070  -15.9630 C   0  0  0  0  0  0  0  0  0  0  0  0
    6.8620   -0.0420  -14.6470 C   0  0  0  0  0  3  0  0  0  0  0  0
    6.6020   -1.3910  -14.3940 C   0  0  0  0  0  3  0  0  0  0  0  0
    6.4810   -2.3080  -15.4530 C   0  0  0  0  0  0  0  0  0  0  0  0
    6.6700   -1.8500  -16.7680 C   0  0  0  0  0  3  0  0  0  0  0  0
    6.9450   -0.5040  -17.0220 C   0  0  0  0  0  3  0  0  0  0  0  0
    7.4730    4.1350  -15.3670 C   0  0  0  0  0  1  0  0  0  0  0  0
    7.4060    2.7070  -15.1100 N   0  0  0  0  0  0  0  0  0  0  0  0
    7.5140    2.2990  -13.7170 C   0  0  0  0  0  1  0  0  0  0  0  0
    7.3240    1.8370  -16.1970 C   0  0  0  0  0  0  0  0  0  0  0  0
    7.5010    2.1950  -17.3600 O   0  0  0  0  0  0  0  0  0  0  0  0
    4.8530   -4.2530  -15.7050 C   0  0  0  0  0  0  0  0  0  0  0  0
    4.7130   -5.0810  -16.8330 C   0  0  0  0  0  3  0  0  0  0  0  0
    3.4510   -5.4990  -17.2600 C   0  0  0  0  0  3  0  0  0  0  0  0
    2.3140   -5.1050  -16.5520 C   0  0  0  0  0  0  0  0  0  0  0  0
    2.4270   -4.2570  -15.4480 C   0  0  0  0  0  3  0  0  0  0  0  0
    3.6910   -3.8400  -15.0250 C   0  0  0  0  0  3  0  0  0  0  0  0
    0.9840   -5.5510  -17.0260 C   0  0  0  0  0  0  0  0  0  0  0  0
    0.1790   -4.6840  -17.3550 O   0  0  0  0  0  0  0  0  0  0  0  0
    0.7090   -6.9170  -17.0690 N   0  0  0  0  0  0  0  0  0  0  0  0
    1.7010   -7.9740  -16.9320 C   0  0  0  0  0  1  0  0  0  0  0  0
   -0.6500   -7.3450  -17.3480 C   0  0  0  0  0  1  0  0  0  0  0  0
  1  2  1  0  0  0  0
  2  3  2  0  0  0  0
  4  8  1  0  0  0  0
  4  3  1  0  0  0  0
  5  4  2  0  0  0  0
  6  5  1  0  0  0  0
  7  5  1  0  0  0  0
  7  1  2  0  0  0  0
  8  9  2  0  0  0  0
 10  9  1  0  0  0  0
 10 11  1  0  0  0  0
 12 11  2  0  0  0  0
 12 23  1  0  0  0  0
 13 12  1  0  0  0  0
 14 15  1  0  0  0  0
 14 13  2  0  0  0  0
 15 10  2  0  0  0  0
 16 15  1  0  0  0  0
 16  8  1  0  0  0  0
 17 16  1  0  0  0  0
 18 17  1  0  0  0  0
 19 18  1  0  0  0  0
 20 19  1  0  0  0  0
 20 21  1  0  0  0  0
 21 22  1  0  0  0  0
 22 17  1  0  0  0  0
 23 24  1  0  0  0  0
 25 23  2  0  0  0  0
 26  1  1  0  0  0  0
 27 26  1  1  0  0  0
 28 29  1  0  0  0  0
 29 30  2  0  0  0  0
 31 27  1  0  0  0  0
 31 30  1  0  0  0  0
 32 31  2  0  0  0  0
 33 32  1  0  0  0  0
 33 28  2  0  0  0  0
 34 35  1  0  0  0  0
 35 36  1  0  0  0  0
 37 28  1  0  0  0  0
 37 35  1  0  0  0  0
 38 37  2  0  0  0  0
 39 27  1  0  0  0  0
 39 44  1  0  0  0  0
 40 39  2  0  0  0  0
 41 40  1  0  0  0  0
 41 42  2  0  0  0  0
 42 43  1  0  0  0  0
 43 44  2  0  0  0  0
 45 42  1  0  0  0  0
 46 45  2  0  0  0  0
 47 45  1  0  0  0  0
 47 48  1  0  0  0  0
 49 47  1  0  0  0  0
M  END
>  <minimizedAffinity>
-1.54116631

$$$$

 OpenBabel09132200243D

 49 54  0  0  1  0  0  0  0  0999 V2000
    5.3230   -9.5640  -17.1490 C   0  0  0  0  0  0  0  0  0  0  0  0
    4.4850  -10.6790  -17.1460 C   0  0  0  0  0  3  0  0  0  0  0  0
    3.1020  -10.4990  -17.1860 C   0  0  0  0  0  3  0  0  0  0  0  0
    2.5540   -9.2090  -17.2680 C   0  0  0  0  0  0  0  0  0  0  0  0
    3.4170   -8.1110  -17.2910 C   0  0  0  0  0  0  0  0  0  0  0  0
    2.9310   -6.8610  -17.3290 F   0  0  0  0  0  0  0  0  0  0  0  0
    4.7980   -8.2790  -17.2520 C   0  0  0  0  0  3  0  0  0  0  0  0
    1.1060   -9.0460  -17.2300 C   0  0  0  0  0  0  0  0  0  0  0  0
    0.5400   -7.8640  -17.0720 N   0  0  0  0  0  0  0  0  0  0  0  0
   -0.8130   -8.0740  -17.1180 C   0  0  0  0  0  0  0  0  0  0  0  0
   -1.8650   -7.1490  -17.0320 C   0  0  0  0  0  3  0  0  0  0  0  0
   -3.1990   -7.5960  -17.1070 C   0  0  0  0  0  0  0  0  0  0  0  0
   -3.4440   -8.9690  -17.2710 C   0  0  0  0  0  3  0  0  0  0  0  0
   -2.4080   -9.9080  -17.3550 C   0  0  0  0  0  3  0  0  0  0  0  0
   -1.0950   -9.4270  -17.2690 C   0  0  0  0  0  0  0  0  0  0  0  0
    0.1470  -10.0430  -17.2870 N   0  0  0  0  0  0  0  0  0  0  0  0
    0.3160  -11.4940  -17.2980 C   0  0  0  0  0  3  0  0  0  0  0  0
    1.5190  -11.9630  -16.4680 C   0  0  0  0  0  2  0  0  0  0  0  0
    1.7600  -13.4620  -16.6450 C   0  0  0  0  0  2  0  0  0  0  0  0
    0.5070  -14.2790  -16.3420 C   0  0  0  0  0  2  0  0  0  0  0  0
   -0.6930  -13.8060  -17.1610 C   0  0  0  0  0  2  0  0  0  0  0  0
   -0.9450  -12.3110  -16.9680 C   0  0  0  0  0  2  0  0  0  0  0  0
   -4.3490   -6.6120  -17.0120 C   0  0  0  0  0  0  0  0  0  0  0  0
   -5.4660   -7.0570  -16.5990 O   0  0  0  0  0  1  0  0  0  0  0  0
   -4.1120   -5.4110  -17.3580 O   0  0  0  0  0  0  0  0  0  0  0  0
    6.6830   -9.7080  -17.0820 O   0  0  0  0  0  0  0  0  0  0  0  0
    7.2040   -9.3300  -15.7890 C   0  0  2  0  0  3  0  0  0  0  0  0
    5.5690  -11.9540  -12.7450 C   0  0  0  0  0  0  0  0  0  0  0  0
    5.5810  -12.3660  -14.0810 C   0  0  0  0  0  3  0  0  0  0  0  0
    6.0990  -11.5230  -15.0670 C   0  0  0  0  0  3  0  0  0  0  0  0
    6.6090  -10.2570  -14.7310 C   0  0  0  0  0  0  0  0  0  0  0  0
    6.6260   -9.8730  -13.3800 C   0  0  0  0  0  3  0  0  0  0  0  0
    6.1220  -10.7200  -12.3910 C   0  0  0  0  0  3  0  0  0  0  0  0
    5.0720  -15.0920  -10.6530 C   0  0  0  0  0  1  0  0  0  0  0  0
    5.7190  -14.0870  -11.4790 N   0  0  0  0  0  0  0  0  0  0  0  0
    7.0690  -14.3950  -11.9270 C   0  0  0  0  0  1  0  0  0  0  0  0
    5.0490  -12.8870  -11.7160 C   0  0  0  0  0  0  0  0  0  0  0  0
    4.0320  -12.5530  -11.1110 O   0  0  0  0  0  0  0  0  0  0  0  0
    6.9230   -7.8500  -15.5110 C   0  0  0  0  0  0  0  0  0  0  0  0
    6.1040   -7.4320  -14.4470 C   0  0  0  0  0  3  0  0  0  0  0  0
    5.8820   -6.0740  -14.2080 C   0  0  0  0  0  3  0  0  0  0  0  0
    6.4900   -5.1180  -15.0240 C   0  0  0  0  0  0  0  0  0  0  0  0
    7.2820   -5.5120  -16.1050 C   0  0  0  0  0  3  0  0  0  0  0  0
    7.5010   -6.8710  -16.3420 C   0  0  0  0  0  3  0  0  0  0  0  0
    6.2340   -3.6840  -14.7600 C   0  0  0  0  0  0  0  0  0  0  0  0
    6.6230   -3.2270  -13.6880 O   0  0  0  0  0  0  0  0  0  0  0  0
    5.5670   -2.9310  -15.7250 N   0  0  0  0  0  0  0  0  0  0  0  0
    5.3150   -3.3600  -17.0930 C   0  0  0  0  0  1  0  0  0  0  0  0
    5.1490   -1.5820  -15.3870 C   0  0  0  0  0  1  0  0  0  0  0  0
  1  2  1  0  0  0  0
  1 26  1  0  0  0  0
  3  2  2  0  0  0  0
  4  8  1  0  0  0  0
  4  3  1  0  0  0  0
  5  4  2  0  0  0  0
  5  7  1  0  0  0  0
  6  5  1  0  0  0  0
  7  1  2  0  0  0  0
  8  9  2  0  0  0  0
 10  9  1  0  0  0  0
 10 11  1  0  0  0  0
 12 11  2  0  0  0  0
 12 23  1  0  0  0  0
 13 12  1  0  0  0  0
 14 13  2  0  0  0  0
 14 15  1  0  0  0  0
 15 10  2  0  0  0  0
 16 15  1  0  0  0  0
 16  8  1  0  0  0  0
 17 16  1  0  0  0  0
 17 22  1  0  0  0  0
 17 18  1  0  0  0  0
 19 18  1  0  0  0  0
 19 20  1  0  0  0  0
 21 22  1  0  0  0  0
 21 20  1  0  0  0  0
 23 24  1  0  0  0  0
 25 23  2  0  0  0  0
 27 26  1  6  0  0  0
 27 39  1  0  0  0  0
 27 31  1  0  0  0  0
 28 33  1  0  0  0  0
 28 37  1  0  0  0  0
 29 28  2  0  0  0  0
 30 31  2  0  0  0  0
 30 29  1  0  0  0  0
 31 32  1  0  0  0  0
 32 33  2  0  0  0  0
 35 34  1  0  0  0  0
 36 35  1  0  0  0  0
 37 35  1  0  0  0  0
 37 38  2  0  0  0  0
 39 40  1  0  0  0  0
 40 41  2  0  0  0  0
 42 45  1  0  0  0  0
 42 41  1  0  0  0  0
 43 42  2  0  0  0  0
 44 43  1  0  0  0  0
 44 39  2  0  0  0  0
 45 46  2  0  0  0  0
 47 49  1  0  0  0  0
 47 45  1  0  0  0  0
 48 47  1  0  0  0  0
M  END
>  <minimizedAffinity>
1.41483116

$$$$
