REMARK  Name = 
REMARK  5 active torsions:
REMARK  status: ('A' for Active; 'I' for Inactive)
REMARK    1  A    between atoms: C_2  and  C_4
REMARK    2  A    between atoms: C_6  and  C_7
REMARK    3  A    between atoms: C_11  and  O_12
REMARK    4  A    between atoms: C_15  and  O_16
REMARK    5  A    between atoms: C_17  and  O_18
REMARK                            x       y       z     vdW  Elec       q    Type
REMARK                         _______ _______ _______ _____ _____    ______ ____
ROOT
ATOM      1  C   UNK A   1       2.743  -0.244  -1.444  0.00  0.00    +0.135 A 
ATOM      2  N   UNK A   1       3.807  -1.087  -1.595  0.00  0.00    -0.222 NA
ATOM      3  C   UNK A   0       4.769  -0.752  -2.477  0.00  0.00    +0.164 A 
ATOM      4  N   UNK A   1       4.767   0.363  -3.233  0.00  0.00    -0.190 NA
ATOM      5  C   UNK A   1       3.708   1.160  -3.056  0.00  0.00    +0.259 A 
ATOM      6  C   UNK A   1       2.667   0.922  -2.185  0.00  0.00    +0.206 A 
ENDROOT
BRANCH   3   7
ATOM      7  C   UNK A   0       5.913  -1.677  -2.625  0.00  0.00    +0.023 A 
ATOM      8  C   UNK A   0       5.979  -2.886  -1.903  0.00  0.00    +0.012 A 
ATOM      9  C   UNK A   0       7.060  -3.764  -2.040  0.00  0.00    +0.004 A 
ATOM     10  C   UNK A   0       8.103  -3.452  -2.907  0.00  0.00    +0.045 A 
ATOM     11  C   UNK A   0       8.058  -2.267  -3.627  0.00  0.00    +0.118 A 
ATOM     12  C   UNK A   0       6.983  -1.387  -3.495  0.00  0.00    +0.057 A 
BRANCH  11  13
ATOM     13  O   UNK A   0       9.097  -1.988  -4.467  0.00  0.00    -0.507 OA
ATOM     14  H   UNK A   0       8.914  -1.131  -4.888  0.00  0.00    +0.292 HD
ENDBRANCH  11  13
ENDBRANCH   3   7
BRANCH   1  16
ATOM     15  O   UNK A   1       0.677   0.306  -0.408  0.00  0.00    -0.543 OA
ATOM     16  C   UNK A   1       1.619  -0.563  -0.460  0.00  0.00    +0.094 C 
ATOM     17  O   UNK A   1       1.679  -1.630   0.225  0.00  0.00    -0.543 OA
ENDBRANCH   1  16
BRANCH   5  18
ATOM     18  O   UNK A   1       3.683   2.304  -3.818  0.00  0.00    -0.490 OA
ATOM     19  H   UNK A   1       2.847   2.725  -3.538  0.00  0.00    +0.294 HD
ENDBRANCH   5  18
BRANCH   6  20
ATOM     20  O   UNK A   1       1.647   1.835  -2.112  0.00  0.00    -0.501 OA
ATOM     21  H   UNK A   1       1.017   1.462  -1.428  0.00  0.00    +0.292 HD
ENDBRANCH   6  20
TORSDOF 5
