
 OpenBabel09122222393D

 21 22  0  0  0  0  0  0  0  0999 V2000
    9.2530   -2.9620    1.7190 C   0  0  0  0  0  0  0  0  0  0  0  0
    9.8640   -1.9170    1.0870 N   0  0  0  0  0  0  0  0  0  0  0  0
   10.0150   -1.9790   -0.2510 C   0  0  0  0  0  0  0  0  0  0  0  0
    9.6070   -3.0020   -1.0260 N   0  0  0  0  0  0  0  0  0  0  0  0
    9.0160   -4.0040   -0.3680 C   0  0  0  0  0  0  0  0  0  0  0  0
    8.8060   -4.0520    0.9930 C   0  0  0  0  0  0  0  0  0  0  0  0
   10.6770   -0.8370   -0.9170 C   0  0  0  0  0  0  0  0  0  0  0  0
   11.5080   -1.0230   -2.0410 C   0  0  0  0  0  3  0  0  0  0  0  0
   12.1370    0.0550   -2.6750 C   0  0  0  0  0  3  0  0  0  0  0  0
   11.9470    1.3490   -2.1970 C   0  0  0  0  0  3  0  0  0  0  0  0
   11.1340    1.5540   -1.0920 C   0  0  0  0  0  0  0  0  0  0  0  0
   10.5040    0.4830   -0.4560 C   0  0  0  0  0  3  0  0  0  0  0  0
   10.9690    2.8330   -0.6460 O   0  0  0  0  0  0  0  0  0  0  0  0
   10.3800    2.8030    0.1270 H   0  0  0  0  0  0  0  0  0  0  0  0
   10.0510   -2.5380    3.9170 O   0  0  0  0  0  1  0  0  0  0  0  0
    9.0490   -2.9550    3.2330 C   0  0  0  0  0  0  0  0  0  0  0  0
    7.9410   -3.3490    3.7110 O   0  0  0  0  0  0  0  0  0  0  0  0
    8.5920   -5.0610   -1.1390 O   0  0  0  0  0  0  0  0  0  0  0  0
    8.2020   -5.6620   -0.4750 H   0  0  0  0  0  0  0  0  0  0  0  0
    8.1830   -5.1500    1.5260 O   0  0  0  0  0  0  0  0  0  0  0  0
    8.1390   -4.9680    2.5100 H   0  0  0  0  0  0  0  0  0  0  0  0
  1 16  1  0  0  0  0
  2  1  1  0  0  0  0
  3  2  2  0  0  0  0
  4  5  2  0  0  0  0
  4  3  1  0  0  0  0
  5  6  1  0  0  0  0
  6 20  1  0  0  0  0
  6  1  2  0  0  0  0
  7 12  1  0  0  0  0
  7  3  1  0  0  0  0
  8  7  2  0  0  0  0
  9 10  2  0  0  0  0
  9  8  1  0  0  0  0
 10 11  1  0  0  0  0
 11 13  1  0  0  0  0
 11 12  2  0  0  0  0
 13 14  1  0  0  0  0
 16 17  2  0  0  0  0
 16 15  1  0  0  0  0
 18 19  1  0  0  0  0
 18  5  1  0  0  0  0
 20 21  1  0  0  0  0
M  END
>  <minimizedAffinity>
-6.90574598

$$$$
