
 OpenBabel09122222393D

 21 22  0  0  0  0  0  0  0  0999 V2000
    8.9850   -3.5580    0.2940 C   0  0  0  0  0  0  0  0  0  0  0  0
    9.6180   -2.6350   -0.4890 N   0  0  0  0  0  0  0  0  0  0  0  0
    9.9480   -1.4490    0.0590 C   0  0  0  0  0  0  0  0  0  0  0  0
    9.7020   -1.0950    1.3360 N   0  0  0  0  0  0  0  0  0  0  0  0
    9.0810   -2.0260    2.0670 C   0  0  0  0  0  0  0  0  0  0  0  0
    8.6960   -3.2700    1.6160 C   0  0  0  0  0  0  0  0  0  0  0  0
   10.6330   -0.4630   -0.8040 C   0  0  0  0  0  0  0  0  0  0  0  0
   11.1290   -0.8190   -2.0750 C   0  0  0  0  0  3  0  0  0  0  0  0
   11.7780    0.1110   -2.8950 C   0  0  0  0  0  3  0  0  0  0  0  0
   11.9450    1.4230   -2.4610 C   0  0  0  0  0  3  0  0  0  0  0  0
   11.4650    1.7930   -1.2130 C   0  0  0  0  0  0  0  0  0  0  0  0
   10.8170    0.8710   -0.3910 C   0  0  0  0  0  3  0  0  0  0  0  0
   11.6470    3.0860   -0.8150 O   0  0  0  0  0  0  0  0  0  0  0  0
   11.2610    3.1790    0.0720 H   0  0  0  0  0  0  0  0  0  0  0  0
    8.7160   -5.9050    0.5500 O   0  0  0  0  0  1  0  0  0  0  0  0
    8.5850   -4.9220   -0.2650 C   0  0  0  0  0  0  0  0  0  0  0  0
    8.1620   -5.0040   -1.4590 O   0  0  0  0  0  0  0  0  0  0  0  0
    8.8170   -1.6870    3.3730 O   0  0  0  0  0  0  0  0  0  0  0  0
    8.3720   -2.4880    3.7130 H   0  0  0  0  0  0  0  0  0  0  0  0
    8.0670   -4.1220    2.4870 O   0  0  0  0  0  0  0  0  0  0  0  0
    7.8860   -4.9490    1.9510 H   0  0  0  0  0  0  0  0  0  0  0  0
  1  6  2  0  0  0  0
  2  3  2  0  0  0  0
  2  1  1  0  0  0  0
  3  4  1  0  0  0  0
  4  5  2  0  0  0  0
  5 18  1  0  0  0  0
  6  5  1  0  0  0  0
  6 20  1  0  0  0  0
  7 12  1  0  0  0  0
  7  3  1  0  0  0  0
  8  7  2  0  0  0  0
  9 10  2  0  0  0  0
  9  8  1  0  0  0  0
 10 11  1  0  0  0  0
 11 13  1  0  0  0  0
 11 12  2  0  0  0  0
 13 14  1  0  0  0  0
 16  1  1  0  0  0  0
 16 15  1  0  0  0  0
 17 16  2  0  0  0  0
 18 19  1  0  0  0  0
 21 20  1  0  0  0  0
M  END
>  <minimizedAffinity>
-6.63497591

$$$$
