
 OpenBabel09122222393D

 21 22  0  0  0  0  0  0  0  0999 V2000
    9.0990   -3.0380    1.8930 C   0  0  0  0  0  0  0  0  0  0  0  0
   10.0290   -2.5600    1.0140 N   0  0  0  0  0  0  0  0  0  0  0  0
   10.0980   -3.1170   -0.2110 C   0  0  0  0  0  0  0  0  0  0  0  0
    9.3140   -4.1210   -0.6460 N   0  0  0  0  0  0  0  0  0  0  0  0
    8.4180   -4.5610    0.2440 C   0  0  0  0  0  0  0  0  0  0  0  0
    8.2550   -4.0700    1.5210 C   0  0  0  0  0  0  0  0  0  0  0  0
   11.1110   -2.5840   -1.1470 C   0  0  0  0  0  0  0  0  0  0  0  0
   12.1750   -3.3830   -1.6120 C   0  0  0  0  0  3  0  0  0  0  0  0
   13.1360   -2.8830   -2.4980 C   0  0  0  0  0  3  0  0  0  0  0  0
   13.0520   -1.5670   -2.9430 C   0  0  0  0  0  3  0  0  0  0  0  0
   12.0130   -0.7630   -2.4980 C   0  0  0  0  0  0  0  0  0  0  0  0
   11.0520   -1.2560   -1.6140 C   0  0  0  0  0  3  0  0  0  0  0  0
   11.9590    0.5240   -2.9500 O   0  0  0  0  0  0  0  0  0  0  0  0
   11.1830    0.9460   -2.5460 H   0  0  0  0  0  0  0  0  0  0  0  0
    8.7750   -3.3080    4.2310 O   0  0  0  0  0  1  0  0  0  0  0  0
    8.9650   -2.4500    3.2960 C   0  0  0  0  0  0  0  0  0  0  0  0
    9.0480   -1.1930    3.4520 O   0  0  0  0  0  0  0  0  0  0  0  0
    7.6060   -5.5880   -0.1770 O   0  0  0  0  0  0  0  0  0  0  0  0
    7.0460   -5.7480    0.6070 H   0  0  0  0  0  0  0  0  0  0  0  0
    7.2900   -4.6230    2.3220 O   0  0  0  0  0  0  0  0  0  0  0  0
    7.3510   -4.1180    3.1850 H   0  0  0  0  0  0  0  0  0  0  0  0
  1 16  1  0  0  0  0
  2  1  1  0  0  0  0
  3  2  2  0  0  0  0
  4  3  1  0  0  0  0
  4  5  2  0  0  0  0
  5  6  1  0  0  0  0
  6  1  2  0  0  0  0
  6 20  1  0  0  0  0
  7  3  1  0  0  0  0
  8  7  1  0  0  0  0
  9  8  2  0  0  0  0
 10  9  1  0  0  0  0
 10 11  2  0  0  0  0
 11 12  1  0  0  0  0
 12  7  2  0  0  0  0
 13 14  1  0  0  0  0
 13 11  1  0  0  0  0
 16 17  2  0  0  0  0
 16 15  1  0  0  0  0
 18  5  1  0  0  0  0
 18 19  1  0  0  0  0
 20 21  1  0  0  0  0
M  END
>  <minimizedAffinity>
-7.40720463

$$$$
