REMARK  Name = 
REMARK  3 active torsions:
REMARK  status: ('A' for Active; 'I' for Inactive)
REMARK    1  A    between atoms: C_2  and  C_4
REMARK    2  A    between atoms: C_8  and  C_9
REMARK    3  A    between atoms: C_15  and  C_16
REMARK                            x       y       z     vdW  Elec       q    Type
REMARK                         _______ _______ _______ _____ _____    ______ ____
ROOT
ATOM      1  C   UNL     1       3.030  -0.860  -0.822  0.00  0.00    -0.001 A 
ATOM      2  C   UNL     1       2.610  -0.844  -2.159  0.00  0.00    +0.010 A 
ATOM      3  C   UNL     1       3.092  -1.773  -3.094  0.00  0.00    +0.011 A 
ATOM      4  C   UNL     1       4.022  -2.756  -2.694  0.00  0.00    +0.004 A 
ATOM      5  C   UNL     1       4.707  -3.839  -3.355  0.00  0.00    -0.011 A 
ATOM      6  C   UNL     1       5.513  -4.452  -2.398  0.00  0.00    +0.051 A 
ATOM      7  N   UNL     1       5.320  -3.785  -1.212  0.00  0.00    -0.354 N 
ATOM      8  C   UNL     1       4.427  -2.757  -1.362  0.00  0.00    +0.048 A 
ATOM      9  C   UNL     1       3.958  -1.835  -0.416  0.00  0.00    +0.036 A 
ATOM     10  H   UNL     1       5.783  -4.003  -0.343  0.00  0.00    +0.166 HD
ENDROOT
BRANCH   5  11
ATOM     11  C   UNL     1       4.576  -4.254  -4.803  0.00  0.00    +0.022 C 
ATOM     12  C   UNL     1       3.150  -4.705  -5.160  0.00  0.00    +0.008 C 
ATOM     13  C   UNL     1       3.050  -5.147  -6.619  0.00  0.00    +0.001 C 
ATOM     14  C   UNL     1       3.548  -4.062  -7.570  0.00  0.00    +0.000 C 
ATOM     15  C   UNL     1       4.967  -3.620  -7.226  0.00  0.00    +0.001 C 
ATOM     16  C   UNL     1       5.081  -3.171  -5.770  0.00  0.00    +0.008 C 
ENDBRANCH   5  11
BRANCH   6  17
ATOM     17  C   UNL     1       6.438  -5.577  -2.487  0.00  0.00    -0.001 A 
ATOM     18  C   UNL     1       7.554  -5.512  -3.328  0.00  0.00    +0.010 A 
ATOM     19  C   UNL     1       8.444  -6.585  -3.407  0.00  0.00    +0.001 A 
ATOM     20  C   UNL     1       8.224  -7.731  -2.643  0.00  0.00    +0.000 A 
ATOM     21  C   UNL     1       7.115  -7.804  -1.800  0.00  0.00    +0.001 A 
ATOM     22  C   UNL     1       6.226  -6.730  -1.722  0.00  0.00    +0.010 A 
ENDBRANCH   6  17
BRANCH   1  24
ATOM     23  O   UNL     1       1.661   1.011  -0.258  0.00  0.00    -0.545 OA
ATOM     24  C   UNL     1       2.496   0.154   0.175  0.00  0.00    +0.072 C 
ATOM     25  O   UNL     1       2.922   0.072   1.371  0.00  0.00    -0.545 OA
ENDBRANCH   1  24
TORSDOF 3
