
 OpenBabel09122222393D

 25 28  0  0  0  0  0  0  0  0999 V2000
    9.5570   -3.6310    0.7470 C   0  0  0  0  0  0  0  0  0  0  0  0
    9.1510   -4.8050    0.1000 C   0  0  0  0  0  3  0  0  0  0  0  0
    7.9360   -5.4360    0.4120 C   0  0  0  0  0  3  0  0  0  0  0  0
    7.0910   -4.8850    1.3990 C   0  0  0  0  0  0  0  0  0  0  0  0
    5.8110   -5.2440    1.9590 C   0  0  0  0  0  0  0  0  0  0  0  0
    5.5070   -4.2820    2.9200 C   0  0  0  0  0  0  0  0  0  0  0  0
    6.5420   -3.3780    2.9360 N   0  0  0  0  0  0  0  0  0  0  0  0
    7.5110   -3.7180    2.0300 C   0  0  0  0  0  0  0  0  0  0  0  0
    8.7220   -3.0770    1.7320 C   0  0  0  0  0  3  0  0  0  0  0  0
    6.6000   -2.5750    3.5440 H   0  0  0  0  0  0  0  0  0  0  0  0
    4.9450   -6.4230    1.5770 C   0  0  0  0  0  3  0  0  0  0  0  0
    4.7120   -6.5160    0.0600 C   0  0  0  0  0  2  0  0  0  0  0  0
    3.8110   -7.6970   -0.2970 C   0  0  0  0  0  2  0  0  0  0  0  0
    4.3520   -9.0080    0.2680 C   0  0  0  0  0  2  0  0  0  0  0  0
    4.5740   -8.9220    1.7740 C   0  0  0  0  0  2  0  0  0  0  0  0
    5.4770   -7.7480    2.1460 C   0  0  0  0  0  2  0  0  0  0  0  0
    4.3650   -4.1350    3.8160 C   0  0  0  0  0  0  0  0  0  0  0  0
    3.6150   -2.9540    3.8220 C   0  0  0  0  0  3  0  0  0  0  0  0
    2.5170   -2.8170    4.6730 C   0  0  0  0  0  3  0  0  0  0  0  0
    2.1610   -3.8620    5.5250 C   0  0  0  0  0  3  0  0  0  0  0  0
    2.9010   -5.0450    5.5250 C   0  0  0  0  0  3  0  0  0  0  0  0
    3.9990   -5.1800    4.6730 C   0  0  0  0  0  3  0  0  0  0  0  0
   11.9050   -3.3290    1.0450 O   0  0  0  0  0  1  0  0  0  0  0  0
   10.8750   -2.9630    0.3940 C   0  0  0  0  0  0  0  0  0  0  0  0
   10.8530   -2.0860   -0.5280 O   0  0  0  0  0  0  0  0  0  0  0  0
  1  9  1  0  0  0  0
  2  3  1  0  0  0  0
  2  1  2  0  0  0  0
  3  4  2  0  0  0  0
  4  5  1  0  0  0  0
  4  8  1  0  0  0  0
  5  6  2  0  0  0  0
  6  7  1  0  0  0  0
  6 17  1  0  0  0  0
  7 10  1  0  0  0  0
  8  7  1  0  0  0  0
  9  8  2  0  0  0  0
 11  5  1  0  0  0  0
 11 16  1  0  0  0  0
 12 11  1  0  0  0  0
 13 12  1  0  0  0  0
 13 14  1  0  0  0  0
 14 15  1  0  0  0  0
 15 16  1  0  0  0  0
 17 18  2  0  0  0  0
 17 22  1  0  0  0  0
 18 19  1  0  0  0  0
 19 20  2  0  0  0  0
 20 21  1  0  0  0  0
 22 21  2  0  0  0  0
 24  1  1  0  0  0  0
 24 23  1  0  0  0  0
 25 24  2  0  0  0  0
M  END
>  <minimizedAffinity>
-6.64588499

$$$$
