
 OpenBabel09122222243D

 25 28  0  0  0  0  0  0  0  0999 V2000
    6.3500   -6.0660   -0.0200 C   0  0  0  0  0  0  0  0  0  0  0  0
    7.1870   -5.6500   -1.0650 C   0  0  0  0  0  3  0  0  0  0  0  0
    8.1980   -4.6980   -0.8640 C   0  0  0  0  0  3  0  0  0  0  0  0
    8.3910   -4.1360    0.4160 C   0  0  0  0  0  0  0  0  0  0  0  0
    9.3020   -3.1690    0.9760 C   0  0  0  0  0  0  0  0  0  0  0  0
    8.9720   -3.0360    2.3230 C   0  0  0  0  0  0  0  0  0  0  0  0
    7.9220   -3.8870    2.5740 N   0  0  0  0  0  0  0  0  0  0  0  0
    7.5510   -4.5620    1.4410 C   0  0  0  0  0  0  0  0  0  0  0  0
    6.5340   -5.5090    1.2570 C   0  0  0  0  0  3  0  0  0  0  0  0
    7.4640   -3.9950    3.4660 H   0  0  0  0  0  0  0  0  0  0  0  0
   10.4170   -2.4420    0.2600 C   0  0  0  0  0  3  0  0  0  0  0  0
   11.2570   -3.3770   -0.6260 C   0  0  0  0  0  2  0  0  0  0  0  0
   12.3940   -2.6250   -1.3160 C   0  0  0  0  0  2  0  0  0  0  0  0
   11.8770   -1.4240   -2.1030 C   0  0  0  0  0  2  0  0  0  0  0  0
   11.0520   -0.4880   -1.2260 C   0  0  0  0  0  2  0  0  0  0  0  0
    9.9080   -1.2260   -0.5320 C   0  0  0  0  0  2  0  0  0  0  0  0
    9.5280   -2.1960    3.3790 C   0  0  0  0  0  0  0  0  0  0  0  0
    9.4720   -0.8020    3.2790 C   0  0  0  0  0  3  0  0  0  0  0  0
    9.9970    0.0020    4.2930 C   0  0  0  0  0  3  0  0  0  0  0  0
   10.5800   -0.5840    5.4160 C   0  0  0  0  0  3  0  0  0  0  0  0
   10.6380   -1.9730    5.5250 C   0  0  0  0  0  3  0  0  0  0  0  0
   10.1130   -2.7760    4.5110 C   0  0  0  0  0  3  0  0  0  0  0  0
    4.2530   -7.0700    0.5180 O   0  0  0  0  0  1  0  0  0  0  0  0
    5.2610   -7.0980   -0.2580 C   0  0  0  0  0  0  0  0  0  0  0  0
    5.4360   -7.9160   -1.2170 O   0  0  0  0  0  0  0  0  0  0  0  0
  1  9  1  0  0  0  0
  2  3  1  0  0  0  0
  2  1  2  0  0  0  0
  3  4  2  0  0  0  0
  4  5  1  0  0  0  0
  4  8  1  0  0  0  0
  5  6  2  0  0  0  0
  6  7  1  0  0  0  0
  6 17  1  0  0  0  0
  7 10  1  0  0  0  0
  8  7  1  0  0  0  0
  9  8  2  0  0  0  0
 11  5  1  0  0  0  0
 12 11  1  0  0  0  0
 13 12  1  0  0  0  0
 14 13  1  0  0  0  0
 14 15  1  0  0  0  0
 15 16  1  0  0  0  0
 16 11  1  0  0  0  0
 17 22  1  0  0  0  0
 18 17  2  0  0  0  0
 18 19  1  0  0  0  0
 19 20  2  0  0  0  0
 20 21  1  0  0  0  0
 22 21  2  0  0  0  0
 24  1  1  0  0  0  0
 24 23  1  0  0  0  0
 25 24  2  0  0  0  0
M  END
>  <minimizedAffinity>
-7.79716921

$$$$

 OpenBabel09122222243D

 25 28  0  0  0  0  0  0  0  0999 V2000
    7.2160   -5.6240    1.1390 C   0  0  0  0  0  0  0  0  0  0  0  0
    8.0020   -5.4790   -0.0120 C   0  0  0  0  0  3  0  0  0  0  0  0
    8.8260   -4.3590   -0.2050 C   0  0  0  0  0  3  0  0  0  0  0  0
    8.8770   -3.3450    0.7750 C   0  0  0  0  0  0  0  0  0  0  0  0
    9.5870   -2.0990    0.9150 C   0  0  0  0  0  0  0  0  0  0  0  0
    9.1950   -1.5440    2.1320 C   0  0  0  0  0  0  0  0  0  0  0  0
    8.3010   -2.4130    2.7090 N   0  0  0  0  0  0  0  0  0  0  0  0
    8.0900   -3.5080    1.9120 C   0  0  0  0  0  0  0  0  0  0  0  0
    7.2600   -4.6180    2.1200 C   0  0  0  0  0  3  0  0  0  0  0  0
    7.8410   -2.2670    3.5950 H   0  0  0  0  0  0  0  0  0  0  0  0
   10.5820   -1.5000   -0.0540 C   0  0  0  0  0  3  0  0  0  0  0  0
   11.3900   -2.5710   -0.8050 C   0  0  0  0  0  2  0  0  0  0  0  0
   12.4070   -1.9430   -1.7560 C   0  0  0  0  0  2  0  0  0  0  0  0
   11.7450   -0.9630   -2.7200 C   0  0  0  0  0  2  0  0  0  0  0  0
   10.9510    0.1080   -1.9780 C   0  0  0  0  0  2  0  0  0  0  0  0
    9.9260   -0.5070   -1.0260 C   0  0  0  0  0  2  0  0  0  0  0  0
    9.5630   -0.2950    2.7900 C   0  0  0  0  0  0  0  0  0  0  0  0
    9.9420   -0.2890    4.1370 C   0  0  0  0  0  3  0  0  0  0  0  0
   10.3020    0.9050    4.7650 C   0  0  0  0  0  3  0  0  0  0  0  0
   10.2870    2.1020    4.0490 C   0  0  0  0  0  3  0  0  0  0  0  0
    9.9120    2.1050    2.7060 C   0  0  0  0  0  3  0  0  0  0  0  0
    9.5530    0.9110    2.0790 C   0  0  0  0  0  3  0  0  0  0  0  0
    5.9050   -7.4230    0.2800 O   0  0  0  0  0  0  0  0  0  0  0  0
    6.3310   -6.8440    1.3300 C   0  0  0  0  0  0  0  0  0  0  0  0
    6.0820   -7.1990    2.5260 O   0  0  0  0  0  1  0  0  0  0  0  0
  1 24  1  0  0  0  0
  1  9  1  0  0  0  0
  2  1  2  0  0  0  0
  3  2  1  0  0  0  0
  3  4  2  0  0  0  0
  4  5  1  0  0  0  0
  4  8  1  0  0  0  0
  5  6  2  0  0  0  0
  6  7  1  0  0  0  0
  6 17  1  0  0  0  0
  7 10  1  0  0  0  0
  8  9  2  0  0  0  0
  8  7  1  0  0  0  0
 11  5  1  0  0  0  0
 12 11  1  0  0  0  0
 13 12  1  0  0  0  0
 14 15  1  0  0  0  0
 14 13  1  0  0  0  0
 15 16  1  0  0  0  0
 16 11  1  0  0  0  0
 17 18  1  0  0  0  0
 18 19  2  0  0  0  0
 20 19  1  0  0  0  0
 21 20  2  0  0  0  0
 22 21  1  0  0  0  0
 22 17  2  0  0  0  0
 23 24  2  0  0  0  0
 24 25  1  0  0  0  0
M  END
>  <minimizedAffinity>
-7.22727776

$$$$

 OpenBabel09122222243D

 25 28  0  0  0  0  0  0  0  0999 V2000
    9.7160   -3.4000    0.2320 C   0  0  0  0  0  0  0  0  0  0  0  0
    9.1730   -2.6510    1.2850 C   0  0  0  0  0  3  0  0  0  0  0  0
    8.0630   -3.1030    2.0150 C   0  0  0  0  0  3  0  0  0  0  0  0
    7.4670   -4.3410    1.6950 C   0  0  0  0  0  0  0  0  0  0  0  0
    6.3570   -5.1010    2.2130 C   0  0  0  0  0  0  0  0  0  0  0  0
    6.2700   -6.2630    1.4500 C   0  0  0  0  0  0  0  0  0  0  0  0
    7.2840   -6.2200    0.5220 N   0  0  0  0  0  0  0  0  0  0  0  0
    8.0200   -5.0710    0.6470 C   0  0  0  0  0  0  0  0  0  0  0  0
    9.1260   -4.6340   -0.0940 C   0  0  0  0  0  3  0  0  0  0  0  0
    7.4610   -6.9260   -0.1750 H   0  0  0  0  0  0  0  0  0  0  0  0
    5.4580   -4.7310    3.3720 C   0  0  0  0  0  3  0  0  0  0  0  0
    6.1290   -3.7510    4.3490 C   0  0  0  0  0  2  0  0  0  0  0  0
    5.2130   -3.4160    5.5250 C   0  0  0  0  0  2  0  0  0  0  0  0
    3.8590   -2.8940    5.0510 C   0  0  0  0  0  2  0  0  0  0  0  0
    3.1850   -3.8690    4.0900 C   0  0  0  0  0  2  0  0  0  0  0  0
    4.0880   -4.2100    2.9060 C   0  0  0  0  0  2  0  0  0  0  0  0
    5.3410   -7.3870    1.4980 C   0  0  0  0  0  0  0  0  0  0  0  0
    5.4840   -8.3840    2.4680 C   0  0  0  0  0  3  0  0  0  0  0  0
    4.5900   -9.4550    2.5200 C   0  0  0  0  0  3  0  0  0  0  0  0
    3.5450   -9.5360    1.6000 C   0  0  0  0  0  3  0  0  0  0  0  0
    3.3930   -8.5450    0.6290 C   0  0  0  0  0  3  0  0  0  0  0  0
    4.2880   -7.4740    0.5800 C   0  0  0  0  0  3  0  0  0  0  0  0
   10.6870   -2.1930   -1.5830 O   0  0  0  0  0  0  0  0  0  0  0  0
   10.9180   -2.8930   -0.5460 C   0  0  0  0  0  0  0  0  0  0  0  0
   12.0690   -3.2060   -0.1040 O   0  0  0  0  0  1  0  0  0  0  0  0
  1  2  1  0  0  0  0
  2  3  2  0  0  0  0
  4  3  1  0  0  0  0
  4  5  1  0  0  0  0
  5 11  1  0  0  0  0
  6 17  1  0  0  0  0
  6  5  2  0  0  0  0
  7  8  1  0  0  0  0
  7  6  1  0  0  0  0
  8  4  2  0  0  0  0
  9  1  2  0  0  0  0
  9  8  1  0  0  0  0
 10  7  1  0  0  0  0
 11 12  1  0  0  0  0
 12 13  1  0  0  0  0
 14 13  1  0  0  0  0
 15 14  1  0  0  0  0
 16 11  1  0  0  0  0
 16 15  1  0  0  0  0
 17 18  1  0  0  0  0
 18 19  2  0  0  0  0
 20 19  1  0  0  0  0
 21 20  2  0  0  0  0
 22 21  1  0  0  0  0
 22 17  2  0  0  0  0
 23 24  2  0  0  0  0
 24 25  1  0  0  0  0
 24  1  1  0  0  0  0
M  END
>  <minimizedAffinity>
-7.11355114

$$$$

 OpenBabel09122222243D

 25 28  0  0  0  0  0  0  0  0999 V2000
    9.5570   -3.6310    0.7470 C   0  0  0  0  0  0  0  0  0  0  0  0
    9.1510   -4.8050    0.1000 C   0  0  0  0  0  3  0  0  0  0  0  0
    7.9360   -5.4360    0.4120 C   0  0  0  0  0  3  0  0  0  0  0  0
    7.0910   -4.8850    1.3990 C   0  0  0  0  0  0  0  0  0  0  0  0
    5.8110   -5.2440    1.9590 C   0  0  0  0  0  0  0  0  0  0  0  0
    5.5070   -4.2820    2.9200 C   0  0  0  0  0  0  0  0  0  0  0  0
    6.5420   -3.3780    2.9360 N   0  0  0  0  0  0  0  0  0  0  0  0
    7.5110   -3.7180    2.0300 C   0  0  0  0  0  0  0  0  0  0  0  0
    8.7220   -3.0770    1.7320 C   0  0  0  0  0  3  0  0  0  0  0  0
    6.6000   -2.5750    3.5440 H   0  0  0  0  0  0  0  0  0  0  0  0
    4.9450   -6.4230    1.5770 C   0  0  0  0  0  3  0  0  0  0  0  0
    4.7120   -6.5160    0.0600 C   0  0  0  0  0  2  0  0  0  0  0  0
    3.8110   -7.6970   -0.2970 C   0  0  0  0  0  2  0  0  0  0  0  0
    4.3520   -9.0080    0.2680 C   0  0  0  0  0  2  0  0  0  0  0  0
    4.5740   -8.9220    1.7740 C   0  0  0  0  0  2  0  0  0  0  0  0
    5.4770   -7.7480    2.1460 C   0  0  0  0  0  2  0  0  0  0  0  0
    4.3650   -4.1350    3.8160 C   0  0  0  0  0  0  0  0  0  0  0  0
    3.6150   -2.9540    3.8220 C   0  0  0  0  0  3  0  0  0  0  0  0
    2.5170   -2.8170    4.6730 C   0  0  0  0  0  3  0  0  0  0  0  0
    2.1610   -3.8620    5.5250 C   0  0  0  0  0  3  0  0  0  0  0  0
    2.9010   -5.0450    5.5250 C   0  0  0  0  0  3  0  0  0  0  0  0
    3.9990   -5.1800    4.6730 C   0  0  0  0  0  3  0  0  0  0  0  0
   11.9050   -3.3290    1.0450 O   0  0  0  0  0  1  0  0  0  0  0  0
   10.8750   -2.9630    0.3940 C   0  0  0  0  0  0  0  0  0  0  0  0
   10.8530   -2.0860   -0.5280 O   0  0  0  0  0  0  0  0  0  0  0  0
  1  9  1  0  0  0  0
  2  3  1  0  0  0  0
  2  1  2  0  0  0  0
  3  4  2  0  0  0  0
  4  5  1  0  0  0  0
  4  8  1  0  0  0  0
  5  6  2  0  0  0  0
  6  7  1  0  0  0  0
  6 17  1  0  0  0  0
  7 10  1  0  0  0  0
  8  7  1  0  0  0  0
  9  8  2  0  0  0  0
 11  5  1  0  0  0  0
 11 16  1  0  0  0  0
 12 11  1  0  0  0  0
 13 12  1  0  0  0  0
 13 14  1  0  0  0  0
 14 15  1  0  0  0  0
 15 16  1  0  0  0  0
 17 18  2  0  0  0  0
 17 22  1  0  0  0  0
 18 19  1  0  0  0  0
 19 20  2  0  0  0  0
 20 21  1  0  0  0  0
 22 21  2  0  0  0  0
 24  1  1  0  0  0  0
 24 23  1  0  0  0  0
 25 24  2  0  0  0  0
M  END
>  <minimizedAffinity>
-6.64588499

$$$$

 OpenBabel09122222243D

 25 28  0  0  0  0  0  0  0  0999 V2000
    3.8910   -9.5870    2.3360 C   0  0  0  0  0  0  0  0  0  0  0  0
    3.2030   -8.7220    3.1970 C   0  0  0  0  0  3  0  0  0  0  0  0
    3.6080   -7.3910    3.3820 C   0  0  0  0  0  3  0  0  0  0  0  0
    4.7330   -6.8950    2.6900 C   0  0  0  0  0  0  0  0  0  0  0  0
    5.4130   -5.6250    2.6300 C   0  0  0  0  0  0  0  0  0  0  0  0
    6.4820   -5.7800    1.7490 C   0  0  0  0  0  0  0  0  0  0  0  0
    6.4470   -7.0730    1.2870 N   0  0  0  0  0  0  0  0  0  0  0  0
    5.4030   -7.7680    1.8390 C   0  0  0  0  0  0  0  0  0  0  0  0
    5.0150   -9.1010    1.6440 C   0  0  0  0  0  3  0  0  0  0  0  0
    7.1080   -7.4750    0.6400 H   0  0  0  0  0  0  0  0  0  0  0  0
    5.0440   -4.3550    3.3620 C   0  0  0  0  0  3  0  0  0  0  0  0
    3.5370   -4.0550    3.2980 C   0  0  0  0  0  2  0  0  0  0  0  0
    3.1920   -2.7530    4.0190 C   0  0  0  0  0  2  0  0  0  0  0  0
    3.7010   -2.7570    5.4590 C   0  0  0  0  0  2  0  0  0  0  0  0
    5.1980   -3.0420    5.5250 C   0  0  0  0  0  2  0  0  0  0  0  0
    5.5570   -4.3450    4.8110 C   0  0  0  0  0  2  0  0  0  0  0  0
    7.5200   -4.8520    1.3130 C   0  0  0  0  0  0  0  0  0  0  0  0
    7.9650   -3.8350    2.1640 C   0  0  0  0  0  3  0  0  0  0  0  0
    8.9640   -2.9520    1.7500 C   0  0  0  0  0  3  0  0  0  0  0  0
    9.5280   -3.0830    0.4810 C   0  0  0  0  0  3  0  0  0  0  0  0
    9.0920   -4.0950   -0.3740 C   0  0  0  0  0  3  0  0  0  0  0  0
    8.0920   -4.9770    0.0420 C   0  0  0  0  0  3  0  0  0  0  0  0
    3.4250  -11.4810    0.9610 O   0  0  0  0  0  0  0  0  0  0  0  0
    3.4370  -11.0250    2.1490 C   0  0  0  0  0  0  0  0  0  0  0  0
    3.1020  -11.6680    3.1940 O   0  0  0  0  0  1  0  0  0  0  0  0
  1  2  1  0  0  0  0
  2  3  2  0  0  0  0
  4  3  1  0  0  0  0
  5  4  1  0  0  0  0
  5 11  1  0  0  0  0
  6  5  2  0  0  0  0
  7  6  1  0  0  0  0
  7  8  1  0  0  0  0
  8  4  2  0  0  0  0
  9  8  1  0  0  0  0
  9  1  2  0  0  0  0
 10  7  1  0  0  0  0
 11 16  1  0  0  0  0
 12 11  1  0  0  0  0
 12 13  1  0  0  0  0
 13 14  1  0  0  0  0
 14 15  1  0  0  0  0
 16 15  1  0  0  0  0
 17  6  1  0  0  0  0
 17 18  1  0  0  0  0
 19 18  2  0  0  0  0
 20 19  1  0  0  0  0
 21 22  1  0  0  0  0
 21 20  2  0  0  0  0
 22 17  2  0  0  0  0
 23 24  2  0  0  0  0
 24  1  1  0  0  0  0
 24 25  1  0  0  0  0
M  END
>  <minimizedAffinity>
-6.48771954

$$$$

 OpenBabel09122222243D

 25 28  0  0  0  0  0  0  0  0999 V2000
    5.2100   -6.7540    1.0190 C   0  0  0  0  0  0  0  0  0  0  0  0
    5.1300   -6.0240    2.2120 C   0  0  0  0  0  3  0  0  0  0  0  0
    6.0670   -5.0290    2.5320 C   0  0  0  0  0  3  0  0  0  0  0  0
    7.1220   -4.7430    1.6400 C   0  0  0  0  0  0  0  0  0  0  0  0
    8.2280   -3.8180    1.6330 C   0  0  0  0  0  0  0  0  0  0  0  0
    8.9290   -4.0340    0.4480 C   0  0  0  0  0  0  0  0  0  0  0  0
    8.2770   -5.0310   -0.2370 N   0  0  0  0  0  0  0  0  0  0  0  0
    7.1850   -5.4770    0.4590 C   0  0  0  0  0  0  0  0  0  0  0  0
    6.2590   -6.4760    0.1250 C   0  0  0  0  0  3  0  0  0  0  0  0
    8.5660   -5.4050   -1.1280 H   0  0  0  0  0  0  0  0  0  0  0  0
    8.5670   -2.7930    2.6910 C   0  0  0  0  0  3  0  0  0  0  0  0
    9.6350   -3.2950    3.6770 C   0  0  0  0  0  2  0  0  0  0  0  0
    9.9390   -2.2540    4.7530 C   0  0  0  0  0  2  0  0  0  0  0  0
   10.3310   -0.9120    4.1420 C   0  0  0  0  0  2  0  0  0  0  0  0
    9.2690   -0.4040    3.1710 C   0  0  0  0  0  2  0  0  0  0  0  0
    8.9570   -1.4340    2.0860 C   0  0  0  0  0  2  0  0  0  0  0  0
   10.1350   -3.4140   -0.0900 C   0  0  0  0  0  0  0  0  0  0  0  0
   10.0460   -2.2760   -0.8990 C   0  0  0  0  0  3  0  0  0  0  0  0
   11.2010   -1.6780   -1.4080 C   0  0  0  0  0  3  0  0  0  0  0  0
   12.4530   -2.2140   -1.1090 C   0  0  0  0  0  3  0  0  0  0  0  0
   12.5520   -3.3470   -0.3020 C   0  0  0  0  0  3  0  0  0  0  0  0
   11.3960   -3.9440    0.2060 C   0  0  0  0  0  3  0  0  0  0  0  0
    3.2930   -7.5340   -0.1680 O   0  0  0  0  0  0  0  0  0  0  0  0
    4.1860   -7.8260    0.6900 C   0  0  0  0  0  0  0  0  0  0  0  0
    4.2950   -8.9390    1.2980 O   0  0  0  0  0  1  0  0  0  0  0  0
  1  2  1  0  0  0  0
  2  3  2  0  0  0  0
  4  3  1  0  0  0  0
  5  4  1  0  0  0  0
  5 11  1  0  0  0  0
  6  5  2  0  0  0  0
  7  6  1  0  0  0  0
  7  8  1  0  0  0  0
  8  4  2  0  0  0  0
  9  8  1  0  0  0  0
  9  1  2  0  0  0  0
 10  7  1  0  0  0  0
 11 12  1  0  0  0  0
 12 13  1  0  0  0  0
 14 13  1  0  0  0  0
 15 14  1  0  0  0  0
 16 11  1  0  0  0  0
 16 15  1  0  0  0  0
 17 22  1  0  0  0  0
 17  6  1  0  0  0  0
 18 17  2  0  0  0  0
 19 20  2  0  0  0  0
 19 18  1  0  0  0  0
 20 21  1  0  0  0  0
 21 22  2  0  0  0  0
 23 24  2  0  0  0  0
 24  1  1  0  0  0  0
 24 25  1  0  0  0  0
M  END
>  <minimizedAffinity>
-6.45334864

$$$$

 OpenBabel09122222243D

 25 28  0  0  0  0  0  0  0  0999 V2000
    9.5060   -3.3780    0.5920 C   0  0  0  0  0  0  0  0  0  0  0  0
    9.3410   -4.6360   -0.0030 C   0  0  0  0  0  3  0  0  0  0  0  0
    8.2780   -5.4820    0.3450 C   0  0  0  0  0  3  0  0  0  0  0  0
    7.3390   -5.0710    1.3160 C   0  0  0  0  0  0  0  0  0  0  0  0
    6.1570   -5.6530    1.9010 C   0  0  0  0  0  0  0  0  0  0  0  0
    5.6670   -4.7320    2.8240 C   0  0  0  0  0  0  0  0  0  0  0  0
    6.5000   -3.6400    2.7950 N   0  0  0  0  0  0  0  0  0  0  0  0
    7.5180   -3.8180    1.8950 C   0  0  0  0  0  0  0  0  0  0  0  0
    8.5760   -2.9610    1.5610 C   0  0  0  0  0  3  0  0  0  0  0  0
    6.3970   -2.8170    3.3690 H   0  0  0  0  0  0  0  0  0  0  0  0
    5.5440   -6.9960    1.5750 C   0  0  0  0  0  3  0  0  0  0  0  0
    5.5790   -7.9650    2.7690 C   0  0  0  0  0  2  0  0  0  0  0  0
    4.9810   -9.3230    2.4070 C   0  0  0  0  0  2  0  0  0  0  0  0
    3.5700   -9.1830    1.8420 C   0  0  0  0  0  2  0  0  0  0  0  0
    3.5330   -8.2320    0.6500 C   0  0  0  0  0  2  0  0  0  0  0  0
    4.1250   -6.8670    0.9990 C   0  0  0  0  0  2  0  0  0  0  0  0
    4.5190   -4.7790    3.7240 C   0  0  0  0  0  0  0  0  0  0  0  0
    3.5210   -3.8010    3.6510 C   0  0  0  0  0  3  0  0  0  0  0  0
    2.4180   -3.8500    4.5050 C   0  0  0  0  0  3  0  0  0  0  0  0
    2.3050   -4.8810    5.4390 C   0  0  0  0  0  3  0  0  0  0  0  0
    3.2940   -5.8610    5.5170 C   0  0  0  0  0  3  0  0  0  0  0  0
    4.3960   -5.8110    4.6620 C   0  0  0  0  0  3  0  0  0  0  0  0
   10.3790   -1.2930   -0.1730 O   0  0  0  0  0  0  0  0  0  0  0  0
   10.6640   -2.4760    0.2010 C   0  0  0  0  0  0  0  0  0  0  0  0
   11.8340   -2.9680    0.2780 O   0  0  0  0  0  1  0  0  0  0  0  0
  1  9  1  0  0  0  0
  2  3  1  0  0  0  0
  2  1  2  0  0  0  0
  3  4  2  0  0  0  0
  4  8  1  0  0  0  0
  4  5  1  0  0  0  0
  5  6  2  0  0  0  0
  6 17  1  0  0  0  0
  7  6  1  0  0  0  0
  7 10  1  0  0  0  0
  8  7  1  0  0  0  0
  9  8  2  0  0  0  0
 11  5  1  0  0  0  0
 11 12  1  0  0  0  0
 13 12  1  0  0  0  0
 14 13  1  0  0  0  0
 15 16  1  0  0  0  0
 15 14  1  0  0  0  0
 16 11  1  0  0  0  0
 17 22  1  0  0  0  0
 18 17  2  0  0  0  0
 18 19  1  0  0  0  0
 19 20  2  0  0  0  0
 20 21  1  0  0  0  0
 22 21  2  0  0  0  0
 23 24  2  0  0  0  0
 24 25  1  0  0  0  0
 24  1  1  0  0  0  0
M  END
>  <minimizedAffinity>
-6.34348154

$$$$

 OpenBabel09122222243D

 25 28  0  0  0  0  0  0  0  0999 V2000
    8.1780   -4.5320    0.6480 C   0  0  0  0  0  0  0  0  0  0  0  0
    7.6290   -3.8990    1.7710 C   0  0  0  0  0  3  0  0  0  0  0  0
    6.6080   -4.4940    2.5280 C   0  0  0  0  0  3  0  0  0  0  0  0
    6.1110   -5.7640    2.1630 C   0  0  0  0  0  0  0  0  0  0  0  0
    5.1060   -6.6540    2.6890 C   0  0  0  0  0  0  0  0  0  0  0  0
    5.0850   -7.7740    1.8600 C   0  0  0  0  0  0  0  0  0  0  0  0
    6.0360   -7.5820    0.8870 N   0  0  0  0  0  0  0  0  0  0  0  0
    6.6690   -6.3780    1.0450 C   0  0  0  0  0  0  0  0  0  0  0  0
    7.6870   -5.7960    0.2770 C   0  0  0  0  0  3  0  0  0  0  0  0
    6.2380   -8.2280    0.1400 H   0  0  0  0  0  0  0  0  0  0  0  0
    4.2430   -6.4370    3.9110 C   0  0  0  0  0  3  0  0  0  0  0  0
    3.3550   -5.1870    3.7910 C   0  0  0  0  0  2  0  0  0  0  0  0
    2.5150   -4.9730    5.0490 C   0  0  0  0  0  2  0  0  0  0  0  0
    1.6940   -6.2120    5.3940 C   0  0  0  0  0  2  0  0  0  0  0  0
    2.5730   -7.4520    5.5250 C   0  0  0  0  0  2  0  0  0  0  0  0
    3.4160   -7.6810    4.2720 C   0  0  0  0  0  2  0  0  0  0  0  0
    4.2670   -8.9820    1.8860 C   0  0  0  0  0  0  0  0  0  0  0  0
    4.6720  -10.0970    2.6280 C   0  0  0  0  0  3  0  0  0  0  0  0
    3.8850  -11.2500    2.6600 C   0  0  0  0  0  3  0  0  0  0  0  0
    2.6860  -11.2960    1.9490 C   0  0  0  0  0  3  0  0  0  0  0  0
    2.2730  -10.1880    1.2080 C   0  0  0  0  0  3  0  0  0  0  0  0
    3.0600   -9.0360    1.1780 C   0  0  0  0  0  3  0  0  0  0  0  0
    9.8630   -2.8660    0.3670 O   0  0  0  0  0  1  0  0  0  0  0  0
    9.2830   -3.8710   -0.1570 C   0  0  0  0  0  0  0  0  0  0  0  0
    9.5500   -4.3700   -1.2960 O   0  0  0  0  0  0  0  0  0  0  0  0
  1  2  1  0  0  0  0
  2  3  2  0  0  0  0
  4  3  1  0  0  0  0
  4  5  1  0  0  0  0
  5 11  1  0  0  0  0
  6 17  1  0  0  0  0
  6  5  2  0  0  0  0
  7  8  1  0  0  0  0
  7  6  1  0  0  0  0
  8  4  2  0  0  0  0
  9  1  2  0  0  0  0
  9  8  1  0  0  0  0
 10  7  1  0  0  0  0
 11 16  1  0  0  0  0
 12 11  1  0  0  0  0
 12 13  1  0  0  0  0
 13 14  1  0  0  0  0
 14 15  1  0  0  0  0
 16 15  1  0  0  0  0
 17 18  1  0  0  0  0
 18 19  2  0  0  0  0
 20 19  1  0  0  0  0
 21 20  2  0  0  0  0
 22 21  1  0  0  0  0
 22 17  2  0  0  0  0
 24 23  1  0  0  0  0
 24  1  1  0  0  0  0
 25 24  2  0  0  0  0
M  END
>  <minimizedAffinity>
-5.99923611

$$$$

 OpenBabel09122222243D

 25 28  0  0  0  0  0  0  0  0999 V2000
    2.6660   -3.1850    4.4330 C   0  0  0  0  0  0  0  0  0  0  0  0
    3.5780   -2.7890    3.4450 C   0  0  0  0  0  3  0  0  0  0  0  0
    4.3340   -3.7250    2.7220 C   0  0  0  0  0  3  0  0  0  0  0  0
    4.1820   -5.1030    2.9820 C   0  0  0  0  0  0  0  0  0  0  0  0
    4.7660   -6.3100    2.4510 C   0  0  0  0  0  0  0  0  0  0  0  0
    4.1930   -7.3750    3.1420 C   0  0  0  0  0  0  0  0  0  0  0  0
    3.2970   -6.8460    4.0400 N   0  0  0  0  0  0  0  0  0  0  0  0
    3.2710   -5.4780    3.9650 C   0  0  0  0  0  0  0  0  0  0  0  0
    2.5110   -4.5570    4.6990 C   0  0  0  0  0  3  0  0  0  0  0  0
    2.7390   -7.3820    4.6860 H   0  0  0  0  0  0  0  0  0  0  0  0
    5.7920   -6.4180    1.3450 C   0  0  0  0  0  3  0  0  0  0  0  0
    5.1650   -6.3020   -0.0540 C   0  0  0  0  0  2  0  0  0  0  0  0
    6.2170   -6.4440   -1.1530 C   0  0  0  0  0  2  0  0  0  0  0  0
    7.3610   -5.4510   -0.9680 C   0  0  0  0  0  2  0  0  0  0  0  0
    7.9930   -5.5710    0.4150 C   0  0  0  0  0  2  0  0  0  0  0  0
    6.9530   -5.4270    1.5250 C   0  0  0  0  0  2  0  0  0  0  0  0
    4.4060   -8.8160    3.0520 C   0  0  0  0  0  0  0  0  0  0  0  0
    3.7580   -9.5680    2.0670 C   0  0  0  0  0  3  0  0  0  0  0  0
    3.9680  -10.9450    1.9750 C   0  0  0  0  0  3  0  0  0  0  0  0
    4.8310  -11.5800    2.8690 C   0  0  0  0  0  3  0  0  0  0  0  0
    5.4840  -10.8370    3.8530 C   0  0  0  0  0  3  0  0  0  0  0  0
    5.2720   -9.4600    3.9430 C   0  0  0  0  0  3  0  0  0  0  0  0
    2.4460   -1.0750    5.5250 O   0  0  0  0  0  1  0  0  0  0  0  0
    1.8570   -2.1570    5.2050 C   0  0  0  0  0  0  0  0  0  0  0  0
    0.6490   -2.4510    5.4730 O   0  0  0  0  0  0  0  0  0  0  0  0
  1  9  1  0  0  0  0
  1 24  1  0  0  0  0
  2  1  2  0  0  0  0
  3  4  2  0  0  0  0
  3  2  1  0  0  0  0
  4  8  1  0  0  0  0
  5  4  1  0  0  0  0
  5  6  2  0  0  0  0
  6  7  1  0  0  0  0
  7 10  1  0  0  0  0
  8  7  1  0  0  0  0
  8  9  2  0  0  0  0
 11 16  1  0  0  0  0
 11  5  1  0  0  0  0
 12 11  1  0  0  0  0
 13 14  1  0  0  0  0
 13 12  1  0  0  0  0
 14 15  1  0  0  0  0
 15 16  1  0  0  0  0
 17  6  1  0  0  0  0
 17 22  1  0  0  0  0
 18 17  2  0  0  0  0
 19 18  1  0  0  0  0
 19 20  2  0  0  0  0
 20 21  1  0  0  0  0
 21 22  2  0  0  0  0
 24 25  2  0  0  0  0
 24 23  1  0  0  0  0
M  END
>  <minimizedAffinity>
-5.69473457

$$$$

 OpenBabel09122222243D

 25 28  0  0  0  0  0  0  0  0999 V2000
    8.1040   -5.2640    0.6620 C   0  0  0  0  0  0  0  0  0  0  0  0
    8.1970   -6.6620    0.6520 C   0  0  0  0  0  3  0  0  0  0  0  0
    7.2490   -7.4680    1.3020 C   0  0  0  0  0  3  0  0  0  0  0  0
    6.1690   -6.8720    1.9860 C   0  0  0  0  0  0  0  0  0  0  0  0
    5.0410   -7.3660    2.7360 C   0  0  0  0  0  0  0  0  0  0  0  0
    4.3260   -6.2530    3.1720 C   0  0  0  0  0  0  0  0  0  0  0  0
    4.9770   -5.1380    2.7020 N   0  0  0  0  0  0  0  0  0  0  0  0
    6.0920   -5.4820    1.9840 C   0  0  0  0  0  0  0  0  0  0  0  0
    7.0310   -4.6620    1.3430 C   0  0  0  0  0  3  0  0  0  0  0  0
    4.6910   -4.1860    2.8710 H   0  0  0  0  0  0  0  0  0  0  0  0
    4.6790   -8.8110    2.9960 C   0  0  0  0  0  3  0  0  0  0  0  0
    3.9730   -9.4670    1.7980 C   0  0  0  0  0  2  0  0  0  0  0  0
    3.5920  -10.9160    2.0950 C   0  0  0  0  0  2  0  0  0  0  0  0
    4.7990  -11.7330    2.5480 C   0  0  0  0  0  2  0  0  0  0  0  0
    5.4960  -11.0910    3.7450 C   0  0  0  0  0  2  0  0  0  0  0  0
    5.8870   -9.6420    3.4600 C   0  0  0  0  0  2  0  0  0  0  0  0
    3.1170   -6.1340    3.9810 C   0  0  0  0  0  0  0  0  0  0  0  0
    2.6150   -4.8730    4.3230 C   0  0  0  0  0  3  0  0  0  0  0  0
    1.4530   -4.7590    5.0900 C   0  0  0  0  0  3  0  0  0  0  0  0
    0.7850   -5.9050    5.5190 C   0  0  0  0  0  3  0  0  0  0  0  0
    1.2770   -7.1660    5.1810 C   0  0  0  0  0  3  0  0  0  0  0  0
    2.4390   -7.2790    4.4140 C   0  0  0  0  0  3  0  0  0  0  0  0
    9.6950   -3.4860    0.6300 O   0  0  0  0  0  1  0  0  0  0  0  0
    9.1390   -4.4080   -0.0480 C   0  0  0  0  0  0  0  0  0  0  0  0
    9.3760   -4.6780   -1.2690 O   0  0  0  0  0  0  0  0  0  0  0  0
  1  9  1  0  0  0  0
  2  1  2  0  0  0  0
  2  3  1  0  0  0  0
  3  4  2  0  0  0  0
  4  5  1  0  0  0  0
  5 11  1  0  0  0  0
  5  6  2  0  0  0  0
  6 17  1  0  0  0  0
  7 10  1  0  0  0  0
  7  6  1  0  0  0  0
  8  4  1  0  0  0  0
  8  7  1  0  0  0  0
  9  8  2  0  0  0  0
 11 16  1  0  0  0  0
 12 13  1  0  0  0  0
 12 11  1  0  0  0  0
 13 14  1  0  0  0  0
 14 15  1  0  0  0  0
 16 15  1  0  0  0  0
 17 18  2  0  0  0  0
 17 22  1  0  0  0  0
 18 19  1  0  0  0  0
 19 20  2  0  0  0  0
 21 20  1  0  0  0  0
 22 21  2  0  0  0  0
 24 23  1  0  0  0  0
 24  1  1  0  0  0  0
 25 24  2  0  0  0  0
M  END
>  <minimizedAffinity>
-5.25725317

$$$$
