
 OpenBabel09122222393D

 25 28  0  0  0  0  0  0  0  0999 V2000
    9.5060   -3.3780    0.5920 C   0  0  0  0  0  0  0  0  0  0  0  0
    9.3410   -4.6360   -0.0030 C   0  0  0  0  0  3  0  0  0  0  0  0
    8.2780   -5.4820    0.3450 C   0  0  0  0  0  3  0  0  0  0  0  0
    7.3390   -5.0710    1.3160 C   0  0  0  0  0  0  0  0  0  0  0  0
    6.1570   -5.6530    1.9010 C   0  0  0  0  0  0  0  0  0  0  0  0
    5.6670   -4.7320    2.8240 C   0  0  0  0  0  0  0  0  0  0  0  0
    6.5000   -3.6400    2.7950 N   0  0  0  0  0  0  0  0  0  0  0  0
    7.5180   -3.8180    1.8950 C   0  0  0  0  0  0  0  0  0  0  0  0
    8.5760   -2.9610    1.5610 C   0  0  0  0  0  3  0  0  0  0  0  0
    6.3970   -2.8170    3.3690 H   0  0  0  0  0  0  0  0  0  0  0  0
    5.5440   -6.9960    1.5750 C   0  0  0  0  0  3  0  0  0  0  0  0
    5.5790   -7.9650    2.7690 C   0  0  0  0  0  2  0  0  0  0  0  0
    4.9810   -9.3230    2.4070 C   0  0  0  0  0  2  0  0  0  0  0  0
    3.5700   -9.1830    1.8420 C   0  0  0  0  0  2  0  0  0  0  0  0
    3.5330   -8.2320    0.6500 C   0  0  0  0  0  2  0  0  0  0  0  0
    4.1250   -6.8670    0.9990 C   0  0  0  0  0  2  0  0  0  0  0  0
    4.5190   -4.7790    3.7240 C   0  0  0  0  0  0  0  0  0  0  0  0
    3.5210   -3.8010    3.6510 C   0  0  0  0  0  3  0  0  0  0  0  0
    2.4180   -3.8500    4.5050 C   0  0  0  0  0  3  0  0  0  0  0  0
    2.3050   -4.8810    5.4390 C   0  0  0  0  0  3  0  0  0  0  0  0
    3.2940   -5.8610    5.5170 C   0  0  0  0  0  3  0  0  0  0  0  0
    4.3960   -5.8110    4.6620 C   0  0  0  0  0  3  0  0  0  0  0  0
   10.3790   -1.2930   -0.1730 O   0  0  0  0  0  0  0  0  0  0  0  0
   10.6640   -2.4760    0.2010 C   0  0  0  0  0  0  0  0  0  0  0  0
   11.8340   -2.9680    0.2780 O   0  0  0  0  0  1  0  0  0  0  0  0
  1  9  1  0  0  0  0
  2  3  1  0  0  0  0
  2  1  2  0  0  0  0
  3  4  2  0  0  0  0
  4  8  1  0  0  0  0
  4  5  1  0  0  0  0
  5  6  2  0  0  0  0
  6 17  1  0  0  0  0
  7  6  1  0  0  0  0
  7 10  1  0  0  0  0
  8  7  1  0  0  0  0
  9  8  2  0  0  0  0
 11  5  1  0  0  0  0
 11 12  1  0  0  0  0
 13 12  1  0  0  0  0
 14 13  1  0  0  0  0
 15 16  1  0  0  0  0
 15 14  1  0  0  0  0
 16 11  1  0  0  0  0
 17 22  1  0  0  0  0
 18 17  2  0  0  0  0
 18 19  1  0  0  0  0
 19 20  2  0  0  0  0
 20 21  1  0  0  0  0
 22 21  2  0  0  0  0
 23 24  2  0  0  0  0
 24 25  1  0  0  0  0
 24  1  1  0  0  0  0
M  END
>  <minimizedAffinity>
-6.34348154

$$$$
