
 OpenBabel09122222393D

 25 28  0  0  0  0  0  0  0  0999 V2000
    8.1040   -5.2640    0.6620 C   0  0  0  0  0  0  0  0  0  0  0  0
    8.1970   -6.6620    0.6520 C   0  0  0  0  0  3  0  0  0  0  0  0
    7.2490   -7.4680    1.3020 C   0  0  0  0  0  3  0  0  0  0  0  0
    6.1690   -6.8720    1.9860 C   0  0  0  0  0  0  0  0  0  0  0  0
    5.0410   -7.3660    2.7360 C   0  0  0  0  0  0  0  0  0  0  0  0
    4.3260   -6.2530    3.1720 C   0  0  0  0  0  0  0  0  0  0  0  0
    4.9770   -5.1380    2.7020 N   0  0  0  0  0  0  0  0  0  0  0  0
    6.0920   -5.4820    1.9840 C   0  0  0  0  0  0  0  0  0  0  0  0
    7.0310   -4.6620    1.3430 C   0  0  0  0  0  3  0  0  0  0  0  0
    4.6910   -4.1860    2.8710 H   0  0  0  0  0  0  0  0  0  0  0  0
    4.6790   -8.8110    2.9960 C   0  0  0  0  0  3  0  0  0  0  0  0
    3.9730   -9.4670    1.7980 C   0  0  0  0  0  2  0  0  0  0  0  0
    3.5920  -10.9160    2.0950 C   0  0  0  0  0  2  0  0  0  0  0  0
    4.7990  -11.7330    2.5480 C   0  0  0  0  0  2  0  0  0  0  0  0
    5.4960  -11.0910    3.7450 C   0  0  0  0  0  2  0  0  0  0  0  0
    5.8870   -9.6420    3.4600 C   0  0  0  0  0  2  0  0  0  0  0  0
    3.1170   -6.1340    3.9810 C   0  0  0  0  0  0  0  0  0  0  0  0
    2.6150   -4.8730    4.3230 C   0  0  0  0  0  3  0  0  0  0  0  0
    1.4530   -4.7590    5.0900 C   0  0  0  0  0  3  0  0  0  0  0  0
    0.7850   -5.9050    5.5190 C   0  0  0  0  0  3  0  0  0  0  0  0
    1.2770   -7.1660    5.1810 C   0  0  0  0  0  3  0  0  0  0  0  0
    2.4390   -7.2790    4.4140 C   0  0  0  0  0  3  0  0  0  0  0  0
    9.6950   -3.4860    0.6300 O   0  0  0  0  0  1  0  0  0  0  0  0
    9.1390   -4.4080   -0.0480 C   0  0  0  0  0  0  0  0  0  0  0  0
    9.3760   -4.6780   -1.2690 O   0  0  0  0  0  0  0  0  0  0  0  0
  1  9  1  0  0  0  0
  2  1  2  0  0  0  0
  2  3  1  0  0  0  0
  3  4  2  0  0  0  0
  4  5  1  0  0  0  0
  5 11  1  0  0  0  0
  5  6  2  0  0  0  0
  6 17  1  0  0  0  0
  7 10  1  0  0  0  0
  7  6  1  0  0  0  0
  8  4  1  0  0  0  0
  8  7  1  0  0  0  0
  9  8  2  0  0  0  0
 11 16  1  0  0  0  0
 12 13  1  0  0  0  0
 12 11  1  0  0  0  0
 13 14  1  0  0  0  0
 14 15  1  0  0  0  0
 16 15  1  0  0  0  0
 17 18  2  0  0  0  0
 17 22  1  0  0  0  0
 18 19  1  0  0  0  0
 19 20  2  0  0  0  0
 21 20  1  0  0  0  0
 22 21  2  0  0  0  0
 24 23  1  0  0  0  0
 24  1  1  0  0  0  0
 25 24  2  0  0  0  0
M  END
>  <minimizedAffinity>
-5.25725317

$$$$
