
 OpenBabel09122222393D

 25 28  0  0  0  0  0  0  0  0999 V2000
    5.2100   -6.7540    1.0190 C   0  0  0  0  0  0  0  0  0  0  0  0
    5.1300   -6.0240    2.2120 C   0  0  0  0  0  3  0  0  0  0  0  0
    6.0670   -5.0290    2.5320 C   0  0  0  0  0  3  0  0  0  0  0  0
    7.1220   -4.7430    1.6400 C   0  0  0  0  0  0  0  0  0  0  0  0
    8.2280   -3.8180    1.6330 C   0  0  0  0  0  0  0  0  0  0  0  0
    8.9290   -4.0340    0.4480 C   0  0  0  0  0  0  0  0  0  0  0  0
    8.2770   -5.0310   -0.2370 N   0  0  0  0  0  0  0  0  0  0  0  0
    7.1850   -5.4770    0.4590 C   0  0  0  0  0  0  0  0  0  0  0  0
    6.2590   -6.4760    0.1250 C   0  0  0  0  0  3  0  0  0  0  0  0
    8.5660   -5.4050   -1.1280 H   0  0  0  0  0  0  0  0  0  0  0  0
    8.5670   -2.7930    2.6910 C   0  0  0  0  0  3  0  0  0  0  0  0
    9.6350   -3.2950    3.6770 C   0  0  0  0  0  2  0  0  0  0  0  0
    9.9390   -2.2540    4.7530 C   0  0  0  0  0  2  0  0  0  0  0  0
   10.3310   -0.9120    4.1420 C   0  0  0  0  0  2  0  0  0  0  0  0
    9.2690   -0.4040    3.1710 C   0  0  0  0  0  2  0  0  0  0  0  0
    8.9570   -1.4340    2.0860 C   0  0  0  0  0  2  0  0  0  0  0  0
   10.1350   -3.4140   -0.0900 C   0  0  0  0  0  0  0  0  0  0  0  0
   10.0460   -2.2760   -0.8990 C   0  0  0  0  0  3  0  0  0  0  0  0
   11.2010   -1.6780   -1.4080 C   0  0  0  0  0  3  0  0  0  0  0  0
   12.4530   -2.2140   -1.1090 C   0  0  0  0  0  3  0  0  0  0  0  0
   12.5520   -3.3470   -0.3020 C   0  0  0  0  0  3  0  0  0  0  0  0
   11.3960   -3.9440    0.2060 C   0  0  0  0  0  3  0  0  0  0  0  0
    3.2930   -7.5340   -0.1680 O   0  0  0  0  0  0  0  0  0  0  0  0
    4.1860   -7.8260    0.6900 C   0  0  0  0  0  0  0  0  0  0  0  0
    4.2950   -8.9390    1.2980 O   0  0  0  0  0  1  0  0  0  0  0  0
  1  2  1  0  0  0  0
  2  3  2  0  0  0  0
  4  3  1  0  0  0  0
  5  4  1  0  0  0  0
  5 11  1  0  0  0  0
  6  5  2  0  0  0  0
  7  6  1  0  0  0  0
  7  8  1  0  0  0  0
  8  4  2  0  0  0  0
  9  8  1  0  0  0  0
  9  1  2  0  0  0  0
 10  7  1  0  0  0  0
 11 12  1  0  0  0  0
 12 13  1  0  0  0  0
 14 13  1  0  0  0  0
 15 14  1  0  0  0  0
 16 11  1  0  0  0  0
 16 15  1  0  0  0  0
 17 22  1  0  0  0  0
 17  6  1  0  0  0  0
 18 17  2  0  0  0  0
 19 20  2  0  0  0  0
 19 18  1  0  0  0  0
 20 21  1  0  0  0  0
 21 22  2  0  0  0  0
 23 24  2  0  0  0  0
 24  1  1  0  0  0  0
 24 25  1  0  0  0  0
M  END
>  <minimizedAffinity>
-6.45334864

$$$$
