REMARK  Name = 
REMARK  8 active torsions:
REMARK  status: ('A' for Active; 'I' for Inactive)
REMARK    1  A    between atoms: C_1  and  C_2
REMARK    2  A    between atoms: C_12  and  C_13
REMARK    3  A    between atoms: C_22  and  C_23
REMARK    4  A    between atoms: N_25  and  C_26
REMARK    5  A    between atoms: C_26  and  C_27
REMARK    6  A    between atoms: N_29  and  C_30
REMARK    7  A    between atoms: C_33  and  C_34
REMARK    8  A    between atoms: C_35  and  C_36
REMARK                            x       y       z     vdW  Elec       q    Type
REMARK                         _______ _______ _______ _____ _____    ______ ____
ROOT
ATOM      1  C   UNL     1       0.402   1.028   0.623  0.00  0.00    +0.073 C 
ATOM      2  C   UNL     1       0.066  -0.328   1.131  0.00  0.00    +0.076 A 
ATOM      3  N   UNL     1       0.167  -0.694   2.390  0.00  0.00    -0.243 NA
ATOM      4  C   UNL     1      -0.196  -2.013   2.524  0.00  0.00    +0.098 A 
ATOM      5  C   UNL     1      -0.638  -2.626   1.363  0.00  0.00    +0.019 A 
ATOM      6  S   UNL     1      -0.504  -1.537   0.051  0.00  0.00    -0.077 S 
ATOM      7  C   UNL     1      -1.266  -3.974   1.215  0.00  0.00    +0.046 C 
ATOM      8  C   UNL     1      -0.362  -5.139   1.614  0.00  0.00    +0.027 C 
ATOM      9  C   UNL     1       0.614  -4.880   2.760  0.00  0.00    +0.123 C 
ATOM     10  N   UNL     1       0.078  -4.118   3.878  0.00  0.00    -0.338 N 
ATOM     11  C   UNL     1      -0.147  -2.757   3.823  0.00  0.00    +0.073 A 
ATOM     12  C   UNL     1      -0.277  -2.287   5.123  0.00  0.00    -0.010 A 
ATOM     13  C   UNL     1      -0.246  -3.455   5.974  0.00  0.00    +0.004 A 
ATOM     14  C   UNL     1      -0.376  -3.655   7.369  0.00  0.00    +0.011 A 
ATOM     15  C   UNL     1      -0.293  -4.945   7.913  0.00  0.00    +0.014 A 
ATOM     16  C   UNL     1      -0.072  -6.047   7.086  0.00  0.00    +0.039 A 
ATOM     17  C   UNL     1       0.041  -5.875   5.698  0.00  0.00    +0.039 A 
ATOM     18  C   UNL     1      -0.044  -4.576   5.168  0.00  0.00    +0.051 A 
ENDROOT
BRANCH  12  19
ATOM     19  C   UNL     1      -0.480  -0.874   5.632  0.00  0.00    +0.022 C 
ATOM     20  C   UNL     1       0.792  -0.017   5.519  0.00  0.00    +0.008 C 
ATOM     21  C   UNL     1       0.578   1.396   6.057  0.00  0.00    +0.001 C 
ATOM     22  C   UNL     1      -0.633   2.067   5.418  0.00  0.00    +0.000 C 
ATOM     23  C   UNL     1      -1.896   1.232   5.606  0.00  0.00    +0.001 C 
ATOM     24  C   UNL     1      -1.723  -0.181   5.051  0.00  0.00    +0.008 C 
ENDBRANCH  12  19
BRANCH  16  25
ATOM     25  C   UNL     1       0.059  -7.439   7.611  0.00  0.00    +0.245 C 
ATOM     26  O   UNL     1      -0.194  -8.383   6.872  0.00  0.00    -0.270 OA
ATOM     27  N   UNL     1       0.515  -7.569   8.900  0.00  0.00    -0.297 N 
ATOM     28  H   UNL     1       0.785  -6.735   9.415  0.00  0.00    +0.150 HD
BRANCH  27  29
ATOM     29  C   UNL     1       0.892  -8.837   9.596  0.00  0.00    +0.111 C 
ATOM     30  C   UNL     1      -0.239  -9.873   9.515  0.00  0.00    +0.035 C 
ATOM     31  C   UNL     1       0.309 -11.065   8.734  0.00  0.00    +0.003 C 
ATOM     32  C   UNL     1       1.600 -10.607   8.073  0.00  0.00    +0.003 C 
ATOM     33  C   UNL     1       2.119  -9.437   8.901  0.00  0.00    +0.035 C 
BRANCH  29  34
ATOM     34  C   UNL     1       1.201  -8.336  11.047  0.00  0.00    +0.241 C 
ATOM     35  O   UNL     1       1.406  -7.117  11.218  0.00  0.00    -0.273 OA
ATOM     36  N   UNL     1       1.219  -9.073  12.187  0.00  0.00    -0.284 N 
ATOM     37  H   UNL     1       1.188  -8.450  12.987  0.00  0.00    +0.155 HD
BRANCH  36  38
ATOM     38  C   UNL     1       1.262 -10.433  12.526  0.00  0.00    +0.033 A 
ATOM     39  C   UNL     1       1.820 -11.434  11.745  0.00  0.00    +0.024 A 
ATOM     40  C   UNL     1       1.863 -12.761  12.196  0.00  0.00    +0.010 A 
ATOM     41  C   UNL     1       1.344 -13.118  13.443  0.00  0.00    -0.025 A 
ATOM     42  C   UNL     1       0.818 -12.104  14.246  0.00  0.00    +0.010 A 
ATOM     43  C   UNL     1       0.788 -10.777  13.798  0.00  0.00    +0.024 A 
BRANCH  41  44
ATOM     44  C   UNL     1       1.397 -14.491  13.964  0.00  0.00    +0.009 C 
ATOM     45  C   UNL     1       1.496 -15.604  13.220  0.00  0.00    +0.025 C 
BRANCH  45  46
ATOM     46  C   UNL     1       1.554 -17.002  13.838  0.00  0.00    +0.065 C 
ATOM     47  O   UNL     1       1.708 -17.925  12.989  0.00  0.00    -0.545 OA
ATOM     48  O   UNL     1       1.446 -17.067  15.094  0.00  0.00    -0.545 OA
ENDBRANCH  45  46
ENDBRANCH  41  44
ENDBRANCH  36  38
ENDBRANCH  29  34
ENDBRANCH  27  29
ENDBRANCH  16  25
TORSDOF 7
