
 OpenBabel09132204463D

 48 54  0  0  0  0  0  0  0  0999 V2000
    3.4010  -10.5270    0.7360 C   0  0  0  0  0  1  0  0  0  0  0  0
    3.5580   -9.5470    1.8420 C   0  0  0  0  0  0  0  0  0  0  0  0
    3.4330   -9.8420    3.1170 N   0  0  0  0  0  0  0  0  0  0  0  0
    3.6150   -8.7120    3.8790 C   0  0  0  0  0  0  0  0  0  0  0  0
    3.9460   -7.5690    3.1710 C   0  0  0  0  0  0  0  0  0  0  0  0
    3.9360   -7.9070    1.4940 S   0  0  0  0  0  0  0  0  0  0  0  0
    4.3810   -6.2450    3.7110 C   0  0  0  0  0  2  0  0  0  0  0  0
    3.3340   -5.5390    4.5710 C   0  0  0  0  0  2  0  0  0  0  0  0
    2.4260   -6.4370    5.4090 C   0  0  0  0  0  2  0  0  0  0  0  0
    3.0830   -7.5630    6.0550 N   0  0  0  0  0  0  0  0  0  0  0  0
    3.4900   -8.6910    5.3710 C   0  0  0  0  0  0  0  0  0  0  0  0
    3.7090   -9.7030    6.2970 C   0  0  0  0  0  0  0  0  0  0  0  0
    3.5350   -9.0970    7.5980 C   0  0  0  0  0  0  0  0  0  0  0  0
    3.6640   -9.5720    8.9250 C   0  0  0  0  0  3  0  0  0  0  0  0
    3.4170   -8.7200   10.0110 C   0  0  0  0  0  3  0  0  0  0  0  0
    3.0310   -7.3970    9.7970 C   0  0  0  0  0  0  0  0  0  0  0  0
    2.9150   -6.8990    8.4900 C   0  0  0  0  0  3  0  0  0  0  0  0
    3.1660   -7.7650    7.4120 C   0  0  0  0  0  0  0  0  0  0  0  0
    4.1130  -11.1480    6.0830 C   0  0  0  0  0  3  0  0  0  0  0  0
    5.6250  -11.3700    6.2560 C   0  0  0  0  0  2  0  0  0  0  0  0
    6.0200  -12.8260    6.0140 C   0  0  0  0  0  2  0  0  0  0  0  0
    5.1910  -13.7840    6.8630 C   0  0  0  0  0  2  0  0  0  0  0  0
    3.6970  -13.5930    6.6200 C   0  0  0  0  0  2  0  0  0  0  0  0
    3.2650  -12.1510    6.8810 C   0  0  0  0  0  2  0  0  0  0  0  0
    2.7210   -6.4540   10.9130 C   0  0  0  0  0  0  0  0  0  0  0  0
    3.1570   -6.6900   12.0340 O   0  0  0  0  0  0  0  0  0  0  0  0
    1.9970   -5.3330   10.5880 N   0  0  0  0  0  0  0  0  0  0  0  0
    1.7490   -5.1710    9.6150 H   0  0  0  0  0  0  0  0  0  0  0  0
    1.7040   -4.1640   11.4720 C   0  0  0  0  0  0  0  0  0  0  0  0
    2.9160   -3.8110   12.3460 C   0  0  0  0  0  2  0  0  0  0  0  0
    3.3490   -2.4010   11.9530 C   0  0  0  0  0  2  0  0  0  0  0  0
    2.6400   -2.0670   10.6500 C   0  0  0  0  0  2  0  0  0  0  0  0
    1.3960   -2.9460   10.5950 C   0  0  0  0  0  2  0  0  0  0  0  0
    0.4570   -4.6640   12.2760 C   0  0  0  0  0  0  0  0  0  0  0  0
   -0.2540   -5.5540   11.7660 O   0  0  0  0  0  0  0  0  0  0  0  0
    0.0700   -4.2810   13.5200 N   0  0  0  0  0  0  0  0  0  0  0  0
   -0.6040   -4.9490   13.8790 H   0  0  0  0  0  0  0  0  0  0  0  0
    0.3620   -3.2340   14.4050 C   0  0  0  0  0  0  0  0  0  0  0  0
    0.8760   -3.3890   15.6840 C   0  0  0  0  0  3  0  0  0  0  0  0
    1.1870   -2.2740   16.4760 C   0  0  0  0  0  3  0  0  0  0  0  0
    0.9870   -0.9740   16.0050 C   0  0  0  0  0  0  0  0  0  0  0  0
    0.5070   -0.8180   14.7030 C   0  0  0  0  0  3  0  0  0  0  0  0
    0.2090   -1.9330   13.9100 C   0  0  0  0  0  3  0  0  0  0  0  0
    1.3280    0.2190   16.7920 C   0  0  0  0  0  3  0  0  0  0  0  0
    2.1880    0.2540   17.8220 C   0  0  0  0  0  3  0  0  0  0  0  0
    2.4980    1.5400   18.5890 C   0  0  0  0  0  0  0  0  0  0  0  0
    1.4670    2.1690   18.9610 O   0  0  0  0  0  1  0  0  0  0  0  0
    3.7180    1.8150   18.7590 O   0  0  0  0  0  0  0  0  0  0  0  0
  1  2  1  0  0  0  0
  2  3  2  0  0  0  0
  3  4  1  0  0  0  0
  4 11  1  0  0  0  0
  5  7  1  0  0  0  0
  5  4  2  0  0  0  0
  6  2  1  0  0  0  0
  6  5  1  0  0  0  0
  7  8  1  0  0  0  0
  8  9  1  0  0  0  0
  9 10  1  0  0  0  0
 10 18  1  0  0  0  0
 11 10  1  0  0  0  0
 11 12  2  0  0  0  0
 12 13  1  0  0  0  0
 13 14  1  0  0  0  0
 14 15  2  0  0  0  0
 16 15  1  0  0  0  0
 16 25  1  0  0  0  0
 17 16  2  0  0  0  0
 18 13  2  0  0  0  0
 18 17  1  0  0  0  0
 19 20  1  0  0  0  0
 19 12  1  0  0  0  0
 19 24  1  0  0  0  0
 21 20  1  0  0  0  0
 21 22  1  0  0  0  0
 23 22  1  0  0  0  0
 23 24  1  0  0  0  0
 25 26  2  0  0  0  0
 27 25  1  0  0  0  0
 27 29  1  0  0  0  0
 28 27  1  0  0  0  0
 29 34  1  0  0  0  0
 29 30  1  0  0  0  0
 31 30  1  0  0  0  0
 32 31  1  0  0  0  0
 33 32  1  0  0  0  0
 33 29  1  0  0  0  0
 34 36  1  0  0  0  0
 35 34  2  0  0  0  0
 36 37  1  0  0  0  0
 36 38  1  0  0  0  0
 38 39  1  0  0  0  0
 39 40  2  0  0  0  0
 41 40  1  0  0  0  0
 41 44  1  0  0  0  0
 42 41  2  0  0  0  0
 43 38  2  0  0  0  0
 43 42  1  0  0  0  0
 44 45  2  0  0  0  0
 45 46  1  0  0  0  0
 46 48  2  0  0  0  0
 46 47  1  0  0  0  0
M  END
>  <minimizedAffinity>
-7.57076931

$$$$
