
 OpenBabel09132204463D

 48 54  0  0  0  0  0  0  0  0999 V2000
    3.9710  -11.4620    6.7910 C   0  0  0  0  0  1  0  0  0  0  0  0
    3.7570  -10.9190    8.1580 C   0  0  0  0  0  0  0  0  0  0  0  0
    2.9780   -9.8970    8.4360 N   0  0  0  0  0  0  0  0  0  0  0  0
    3.0160   -9.6330    9.7840 C   0  0  0  0  0  0  0  0  0  0  0  0
    3.7820  -10.5080   10.5370 C   0  0  0  0  0  0  0  0  0  0  0  0
    4.5470  -11.6370    9.5050 S   0  0  0  0  0  0  0  0  0  0  0  0
    3.8790  -10.6010   12.0250 C   0  0  0  0  0  2  0  0  0  0  0  0
    4.4460   -9.3540   12.7010 C   0  0  0  0  0  2  0  0  0  0  0  0
    4.1120   -8.0150   12.0450 C   0  0  0  0  0  2  0  0  0  0  0  0
    2.7440   -7.8770   11.5680 N   0  0  0  0  0  0  0  0  0  0  0  0
    2.2780   -8.4990   10.4270 C   0  0  0  0  0  0  0  0  0  0  0  0
    1.1000   -7.8730   10.0420 C   0  0  0  0  0  0  0  0  0  0  0  0
    0.8020   -6.9130   11.0810 C   0  0  0  0  0  0  0  0  0  0  0  0
   -0.2650   -6.0100   11.3040 C   0  0  0  0  0  3  0  0  0  0  0  0
   -0.2700   -5.1810   12.4350 C   0  0  0  0  0  3  0  0  0  0  0  0
    0.7820   -5.2300   13.3510 C   0  0  0  0  0  0  0  0  0  0  0  0
    1.8400   -6.1320   13.1610 C   0  0  0  0  0  3  0  0  0  0  0  0
    1.8310   -6.9550   12.0220 C   0  0  0  0  0  0  0  0  0  0  0  0
    0.2130   -8.1220    8.8390 C   0  0  0  0  0  3  0  0  0  0  0  0
   -1.2320   -8.4700    9.2340 C   0  0  0  0  0  2  0  0  0  0  0  0
   -2.1080   -8.7410    8.0130 C   0  0  0  0  0  2  0  0  0  0  0  0
   -2.0410   -7.5990    7.0040 C   0  0  0  0  0  2  0  0  0  0  0  0
   -0.6040   -7.3210    6.5740 C   0  0  0  0  0  2  0  0  0  0  0  0
    0.2930   -7.0170    7.7730 C   0  0  0  0  0  2  0  0  0  0  0  0
    0.8480   -4.3490   14.5550 C   0  0  0  0  0  0  0  0  0  0  0  0
    1.2970   -4.8000   15.6020 O   0  0  0  0  0  0  0  0  0  0  0  0
    0.4400   -3.0480   14.3870 N   0  0  0  0  0  0  0  0  0  0  0  0
    0.1620   -2.7330   13.4620 H   0  0  0  0  0  0  0  0  0  0  0  0
    0.5650   -1.9330   15.3750 C   0  0  0  0  0  0  0  0  0  0  0  0
   -0.7520   -1.7110   16.1330 C   0  0  0  0  0  2  0  0  0  0  0  0
   -0.4670   -1.9940   17.6060 C   0  0  0  0  0  2  0  0  0  0  0  0
    0.8790   -2.6990   17.6700 C   0  0  0  0  0  2  0  0  0  0  0  0
    1.6350   -2.3040   16.4070 C   0  0  0  0  0  2  0  0  0  0  0  0
    0.9910   -0.7330   14.4630 C   0  0  0  0  0  0  0  0  0  0  0  0
    0.5300    0.3970   14.7230 O   0  0  0  0  0  0  0  0  0  0  0  0
    1.8700   -0.7560   13.4280 N   0  0  0  0  0  0  0  0  0  0  0  0
    2.1410    0.1940   13.2010 H   0  0  0  0  0  0  0  0  0  0  0  0
    2.4800   -1.7300   12.6250 C   0  0  0  0  0  0  0  0  0  0  0  0
    3.6630   -2.3890   12.9280 C   0  0  0  0  0  3  0  0  0  0  0  0
    4.1670   -3.3890   12.0850 C   0  0  0  0  0  3  0  0  0  0  0  0
    3.4980   -3.7530   10.9130 C   0  0  0  0  0  0  0  0  0  0  0  0
    2.2870   -3.1180   10.6290 C   0  0  0  0  0  3  0  0  0  0  0  0
    1.7790   -2.1280   11.4800 C   0  0  0  0  0  3  0  0  0  0  0  0
    3.9770   -4.8160   10.0200 C   0  0  0  0  0  3  0  0  0  0  0  0
    3.4120   -5.1700    8.8550 C   0  0  0  0  0  3  0  0  0  0  0  0
    3.9760   -6.2860    7.9740 C   0  0  0  0  0  0  0  0  0  0  0  0
    4.9000   -6.9480    8.5250 O   0  0  0  0  0  1  0  0  0  0  0  0
    3.4620   -6.4120    6.8280 O   0  0  0  0  0  0  0  0  0  0  0  0
  1  2  1  0  0  0  0
  2  3  2  0  0  0  0
  2  6  1  0  0  0  0
  3  4  1  0  0  0  0
  4 11  1  0  0  0  0
  4  5  2  0  0  0  0
  5  7  1  0  0  0  0
  6  5  1  0  0  0  0
  7  8  1  0  0  0  0
  9  8  1  0  0  0  0
 10 18  1  0  0  0  0
 10  9  1  0  0  0  0
 11 10  1  0  0  0  0
 12 11  2  0  0  0  0
 12 13  1  0  0  0  0
 13 14  2  0  0  0  0
 13 18  1  0  0  0  0
 14 15  1  0  0  0  0
 15 16  2  0  0  0  0
 16 25  1  0  0  0  0
 17 16  1  0  0  0  0
 18 17  2  0  0  0  0
 19 20  1  0  0  0  0
 19 12  1  0  0  0  0
 21 20  1  0  0  0  0
 22 21  1  0  0  0  0
 23 22  1  0  0  0  0
 23 24  1  0  0  0  0
 24 19  1  0  0  0  0
 25 26  2  0  0  0  0
 27 25  1  0  0  0  0
 27 29  1  0  0  0  0
 28 27  1  0  0  0  0
 29 30  1  0  0  0  0
 29 33  1  0  0  0  0
 30 31  1  0  0  0  0
 31 32  1  0  0  0  0
 33 32  1  0  0  0  0
 34 35  2  0  0  0  0
 34 29  1  0  0  0  0
 36 34  1  0  0  0  0
 37 36  1  0  0  0  0
 38 39  1  0  0  0  0
 38 36  1  0  0  0  0
 40 39  2  0  0  0  0
 41 40  1  0  0  0  0
 42 41  2  0  0  0  0
 42 43  1  0  0  0  0
 43 38  2  0  0  0  0
 44 41  1  0  0  0  0
 45 44  2  0  0  0  0
 46 47  1  0  0  0  0
 46 45  1  0  0  0  0
 48 46  2  0  0  0  0
M  END
>  <minimizedAffinity>
-8.21856594

$$$$
