
 OpenBabel09132204463D

 48 54  0  0  0  0  0  0  0  0999 V2000
   -0.0840   -8.5960   18.8150 C   0  0  0  0  0  1  0  0  0  0  0  0
    0.5970   -8.2520   17.5390 C   0  0  0  0  0  0  0  0  0  0  0  0
    0.5500   -7.0680   16.9700 N   0  0  0  0  0  0  0  0  0  0  0  0
    1.2620   -7.0860   15.7940 C   0  0  0  0  0  0  0  0  0  0  0  0
    1.9070   -8.2790   15.5110 C   0  0  0  0  0  0  0  0  0  0  0  0
    1.5290   -9.4360   16.7120 S   0  0  0  0  0  0  0  0  0  0  0  0
    2.8930   -8.5570   14.4230 C   0  0  0  0  0  2  0  0  0  0  0  0
    2.3360   -8.3980   13.0100 C   0  0  0  0  0  2  0  0  0  0  0  0
    1.2790   -7.3130   12.8140 C   0  0  0  0  0  2  0  0  0  0  0  0
    1.5320   -6.0600   13.5110 N   0  0  0  0  0  0  0  0  0  0  0  0
    1.3680   -5.9090   14.8730 C   0  0  0  0  0  0  0  0  0  0  0  0
    1.3060   -4.5510   15.1540 C   0  0  0  0  0  0  0  0  0  0  0  0
    1.5680   -3.8730   13.9040 C   0  0  0  0  0  0  0  0  0  0  0  0
    1.6890   -2.5130   13.5340 C   0  0  0  0  0  3  0  0  0  0  0  0
    1.9480   -2.1590   12.2020 C   0  0  0  0  0  3  0  0  0  0  0  0
    2.0800   -3.1450   11.2230 C   0  0  0  0  0  0  0  0  0  0  0  0
    1.9830   -4.5010   11.5700 C   0  0  0  0  0  3  0  0  0  0  0  0
    1.7220   -4.8390   12.9090 C   0  0  0  0  0  0  0  0  0  0  0  0
    1.0830   -3.8380   16.4730 C   0  0  0  0  0  3  0  0  0  0  0  0
    2.3760   -3.2270   17.0400 C   0  0  0  0  0  2  0  0  0  0  0  0
    2.1390   -2.5330   18.3790 C   0  0  0  0  0  2  0  0  0  0  0  0
    1.0040   -1.5190   18.2980 C   0  0  0  0  0  2  0  0  0  0  0  0
   -0.2860   -2.1650   17.8010 C   0  0  0  0  0  2  0  0  0  0  0  0
   -0.0890   -2.8440   16.4470 C   0  0  0  0  0  2  0  0  0  0  0  0
    2.3230   -2.8280    9.7830 C   0  0  0  0  0  0  0  0  0  0  0  0
    1.8220   -1.8190    9.3010 O   0  0  0  0  0  0  0  0  0  0  0  0
    3.1520   -3.6810    9.0980 N   0  0  0  0  0  0  0  0  0  0  0  0
    3.5960   -4.4470    9.5980 H   0  0  0  0  0  0  0  0  0  0  0  0
    3.6850   -3.4960    7.7140 C   0  0  0  0  0  0  0  0  0  0  0  0
    2.5910   -2.9980    6.7580 C   0  0  0  0  0  2  0  0  0  0  0  0
    3.0300   -1.6230    6.2620 C   0  0  0  0  0  2  0  0  0  0  0  0
    4.1690   -1.1690    7.1620 C   0  0  0  0  0  2  0  0  0  0  0  0
    4.7890   -2.4340    7.7460 C   0  0  0  0  0  2  0  0  0  0  0  0
    4.2290   -4.9260    7.3780 C   0  0  0  0  0  0  0  0  0  0  0  0
    5.4410   -5.0460    7.1040 O   0  0  0  0  0  0  0  0  0  0  0  0
    3.5410   -6.0960    7.4020 N   0  0  0  0  0  0  0  0  0  0  0  0
    4.1980   -6.8690    7.3980 H   0  0  0  0  0  0  0  0  0  0  0  0
    2.1970   -6.4920    7.4360 C   0  0  0  0  0  0  0  0  0  0  0  0
    1.4000   -6.7130    6.3220 C   0  0  0  0  0  3  0  0  0  0  0  0
    0.0790   -7.1610    6.4580 C   0  0  0  0  0  3  0  0  0  0  0  0
   -0.4790   -7.3970    7.7170 C   0  0  0  0  0  0  0  0  0  0  0  0
    0.3350   -7.2120    8.8370 C   0  0  0  0  0  3  0  0  0  0  0  0
    1.6590   -6.7770    8.6970 C   0  0  0  0  0  3  0  0  0  0  0  0
   -1.8490   -7.8950    7.9010 C   0  0  0  0  0  3  0  0  0  0  0  0
   -2.8930   -7.6190    7.1020 C   0  0  0  0  0  3  0  0  0  0  0  0
   -4.2920   -8.1840    7.3550 C   0  0  0  0  0  0  0  0  0  0  0  0
   -4.9890   -7.4780    8.1380 O   0  0  0  0  0  1  0  0  0  0  0  0
   -4.5790   -9.2610    6.7640 O   0  0  0  0  0  0  0  0  0  0  0  0
  2  1  1  0  0  0  0
  3  2  2  0  0  0  0
  4  3  1  0  0  0  0
  5  4  2  0  0  0  0
  5  6  1  0  0  0  0
  6  2  1  0  0  0  0
  7  5  1  0  0  0  0
  8  7  1  0  0  0  0
  9  8  1  0  0  0  0
  9 10  1  0  0  0  0
 10 11  1  0  0  0  0
 11 12  2  0  0  0  0
 11  4  1  0  0  0  0
 12 19  1  0  0  0  0
 13 12  1  0  0  0  0
 14 13  1  0  0  0  0
 15 14  2  0  0  0  0
 16 17  2  0  0  0  0
 16 15  1  0  0  0  0
 17 18  1  0  0  0  0
 18 10  1  0  0  0  0
 18 13  2  0  0  0  0
 19 20  1  0  0  0  0
 20 21  1  0  0  0  0
 22 21  1  0  0  0  0
 23 22  1  0  0  0  0
 24 19  1  0  0  0  0
 24 23  1  0  0  0  0
 25 16  1  0  0  0  0
 26 25  2  0  0  0  0
 27 28  1  0  0  0  0
 27 25  1  0  0  0  0
 29 33  1  0  0  0  0
 29 27  1  0  0  0  0
 30 29  1  0  0  0  0
 31 30  1  0  0  0  0
 31 32  1  0  0  0  0
 32 33  1  0  0  0  0
 34 36  1  0  0  0  0
 34 29  1  0  0  0  0
 35 34  2  0  0  0  0
 36 38  1  0  0  0  0
 37 36  1  0  0  0  0
 38 43  1  0  0  0  0
 39 40  1  0  0  0  0
 39 38  2  0  0  0  0
 40 41  2  0  0  0  0
 41 44  1  0  0  0  0
 41 42  1  0  0  0  0
 43 42  2  0  0  0  0
 45 46  1  0  0  0  0
 45 44  2  0  0  0  0
 46 47  1  0  0  0  0
 48 46  2  0  0  0  0
M  END
>  <minimizedAffinity>
-7.94482517

$$$$
