
 OpenBabel09122223003D

 48 54  0  0  0  0  0  0  0  0999 V2000
    3.9710  -11.4620    6.7910 C   0  0  0  0  0  1  0  0  0  0  0  0
    3.7570  -10.9190    8.1580 C   0  0  0  0  0  0  0  0  0  0  0  0
    2.9780   -9.8970    8.4360 N   0  0  0  0  0  0  0  0  0  0  0  0
    3.0160   -9.6330    9.7840 C   0  0  0  0  0  0  0  0  0  0  0  0
    3.7820  -10.5080   10.5370 C   0  0  0  0  0  0  0  0  0  0  0  0
    4.5470  -11.6370    9.5050 S   0  0  0  0  0  0  0  0  0  0  0  0
    3.8790  -10.6010   12.0250 C   0  0  0  0  0  2  0  0  0  0  0  0
    4.4460   -9.3540   12.7010 C   0  0  0  0  0  2  0  0  0  0  0  0
    4.1120   -8.0150   12.0450 C   0  0  0  0  0  2  0  0  0  0  0  0
    2.7440   -7.8770   11.5680 N   0  0  0  0  0  0  0  0  0  0  0  0
    2.2780   -8.4990   10.4270 C   0  0  0  0  0  0  0  0  0  0  0  0
    1.1000   -7.8730   10.0420 C   0  0  0  0  0  0  0  0  0  0  0  0
    0.8020   -6.9130   11.0810 C   0  0  0  0  0  0  0  0  0  0  0  0
   -0.2650   -6.0100   11.3040 C   0  0  0  0  0  3  0  0  0  0  0  0
   -0.2700   -5.1810   12.4350 C   0  0  0  0  0  3  0  0  0  0  0  0
    0.7820   -5.2300   13.3510 C   0  0  0  0  0  0  0  0  0  0  0  0
    1.8400   -6.1320   13.1610 C   0  0  0  0  0  3  0  0  0  0  0  0
    1.8310   -6.9550   12.0220 C   0  0  0  0  0  0  0  0  0  0  0  0
    0.2130   -8.1220    8.8390 C   0  0  0  0  0  3  0  0  0  0  0  0
   -1.2320   -8.4700    9.2340 C   0  0  0  0  0  2  0  0  0  0  0  0
   -2.1080   -8.7410    8.0130 C   0  0  0  0  0  2  0  0  0  0  0  0
   -2.0410   -7.5990    7.0040 C   0  0  0  0  0  2  0  0  0  0  0  0
   -0.6040   -7.3210    6.5740 C   0  0  0  0  0  2  0  0  0  0  0  0
    0.2930   -7.0170    7.7730 C   0  0  0  0  0  2  0  0  0  0  0  0
    0.8480   -4.3490   14.5550 C   0  0  0  0  0  0  0  0  0  0  0  0
    1.2970   -4.8000   15.6020 O   0  0  0  0  0  0  0  0  0  0  0  0
    0.4400   -3.0480   14.3870 N   0  0  0  0  0  0  0  0  0  0  0  0
    0.1620   -2.7330   13.4620 H   0  0  0  0  0  0  0  0  0  0  0  0
    0.5650   -1.9330   15.3750 C   0  0  0  0  0  0  0  0  0  0  0  0
   -0.7520   -1.7110   16.1330 C   0  0  0  0  0  2  0  0  0  0  0  0
   -0.4670   -1.9940   17.6060 C   0  0  0  0  0  2  0  0  0  0  0  0
    0.8790   -2.6990   17.6700 C   0  0  0  0  0  2  0  0  0  0  0  0
    1.6350   -2.3040   16.4070 C   0  0  0  0  0  2  0  0  0  0  0  0
    0.9910   -0.7330   14.4630 C   0  0  0  0  0  0  0  0  0  0  0  0
    0.5300    0.3970   14.7230 O   0  0  0  0  0  0  0  0  0  0  0  0
    1.8700   -0.7560   13.4280 N   0  0  0  0  0  0  0  0  0  0  0  0
    2.1410    0.1940   13.2010 H   0  0  0  0  0  0  0  0  0  0  0  0
    2.4800   -1.7300   12.6250 C   0  0  0  0  0  0  0  0  0  0  0  0
    3.6630   -2.3890   12.9280 C   0  0  0  0  0  3  0  0  0  0  0  0
    4.1670   -3.3890   12.0850 C   0  0  0  0  0  3  0  0  0  0  0  0
    3.4980   -3.7530   10.9130 C   0  0  0  0  0  0  0  0  0  0  0  0
    2.2870   -3.1180   10.6290 C   0  0  0  0  0  3  0  0  0  0  0  0
    1.7790   -2.1280   11.4800 C   0  0  0  0  0  3  0  0  0  0  0  0
    3.9770   -4.8160   10.0200 C   0  0  0  0  0  3  0  0  0  0  0  0
    3.4120   -5.1700    8.8550 C   0  0  0  0  0  3  0  0  0  0  0  0
    3.9760   -6.2860    7.9740 C   0  0  0  0  0  0  0  0  0  0  0  0
    4.9000   -6.9480    8.5250 O   0  0  0  0  0  1  0  0  0  0  0  0
    3.4620   -6.4120    6.8280 O   0  0  0  0  0  0  0  0  0  0  0  0
  1  2  1  0  0  0  0
  2  3  2  0  0  0  0
  2  6  1  0  0  0  0
  3  4  1  0  0  0  0
  4 11  1  0  0  0  0
  4  5  2  0  0  0  0
  5  7  1  0  0  0  0
  6  5  1  0  0  0  0
  7  8  1  0  0  0  0
  9  8  1  0  0  0  0
 10 18  1  0  0  0  0
 10  9  1  0  0  0  0
 11 10  1  0  0  0  0
 12 11  2  0  0  0  0
 12 13  1  0  0  0  0
 13 14  2  0  0  0  0
 13 18  1  0  0  0  0
 14 15  1  0  0  0  0
 15 16  2  0  0  0  0
 16 25  1  0  0  0  0
 17 16  1  0  0  0  0
 18 17  2  0  0  0  0
 19 20  1  0  0  0  0
 19 12  1  0  0  0  0
 21 20  1  0  0  0  0
 22 21  1  0  0  0  0
 23 22  1  0  0  0  0
 23 24  1  0  0  0  0
 24 19  1  0  0  0  0
 25 26  2  0  0  0  0
 27 25  1  0  0  0  0
 27 29  1  0  0  0  0
 28 27  1  0  0  0  0
 29 30  1  0  0  0  0
 29 33  1  0  0  0  0
 30 31  1  0  0  0  0
 31 32  1  0  0  0  0
 33 32  1  0  0  0  0
 34 35  2  0  0  0  0
 34 29  1  0  0  0  0
 36 34  1  0  0  0  0
 37 36  1  0  0  0  0
 38 39  1  0  0  0  0
 38 36  1  0  0  0  0
 40 39  2  0  0  0  0
 41 40  1  0  0  0  0
 42 41  2  0  0  0  0
 42 43  1  0  0  0  0
 43 38  2  0  0  0  0
 44 41  1  0  0  0  0
 45 44  2  0  0  0  0
 46 47  1  0  0  0  0
 46 45  1  0  0  0  0
 48 46  2  0  0  0  0
M  END
>  <minimizedAffinity>
-8.21856594

$$$$

 OpenBabel09122223003D

 48 54  0  0  0  0  0  0  0  0999 V2000
    2.8340   -3.2820    8.1990 C   0  0  0  0  0  1  0  0  0  0  0  0
    2.9590   -4.0630    6.9410 C   0  0  0  0  0  0  0  0  0  0  0  0
    2.3950   -5.2330    6.7350 N   0  0  0  0  0  0  0  0  0  0  0  0
    2.7240   -5.6970    5.4840 C   0  0  0  0  0  0  0  0  0  0  0  0
    3.4890   -4.8360    4.7150 C   0  0  0  0  0  0  0  0  0  0  0  0
    3.8820   -3.4450    5.6300 S   0  0  0  0  0  0  0  0  0  0  0  0
    3.8510   -4.9650    3.2710 C   0  0  0  0  0  2  0  0  0  0  0  0
    4.7020   -6.1890    2.9400 C   0  0  0  0  0  2  0  0  0  0  0  0
    4.4390   -7.4440    3.7700 C   0  0  0  0  0  2  0  0  0  0  0  0
    3.0390   -7.7340    4.0380 N   0  0  0  0  0  0  0  0  0  0  0  0
    2.2840   -7.0270    4.9520 C   0  0  0  0  0  0  0  0  0  0  0  0
    1.1530   -7.7750    5.2510 C   0  0  0  0  0  0  0  0  0  0  0  0
    1.1920   -8.9230    4.3740 C   0  0  0  0  0  0  0  0  0  0  0  0
    0.3220  -10.0180    4.1530 C   0  0  0  0  0  3  0  0  0  0  0  0
    0.6450  -11.0040    3.2100 C   0  0  0  0  0  3  0  0  0  0  0  0
    1.8340  -10.9230    2.4830 C   0  0  0  0  0  0  0  0  0  0  0  0
    2.7020   -9.8370    2.6710 C   0  0  0  0  0  3  0  0  0  0  0  0
    2.3640   -8.8570    3.6210 C   0  0  0  0  0  0  0  0  0  0  0  0
    0.0290   -7.4930    6.2270 C   0  0  0  0  0  3  0  0  0  0  0  0
   -1.3110   -7.2210    5.5220 C   0  0  0  0  0  2  0  0  0  0  0  0
   -2.4280   -6.9150    6.5170 C   0  0  0  0  0  2  0  0  0  0  0  0
   -2.5430   -7.9960    7.5870 C   0  0  0  0  0  2  0  0  0  0  0  0
   -1.2210   -8.1960    8.3210 C   0  0  0  0  0  2  0  0  0  0  0  0
   -0.0870   -8.5320    7.3540 C   0  0  0  0  0  2  0  0  0  0  0  0
    2.2470  -11.9600    1.4910 C   0  0  0  0  0  0  0  0  0  0  0  0
    2.3790  -11.6430    0.3150 O   0  0  0  0  0  0  0  0  0  0  0  0
    2.5090  -13.2140    1.9860 N   0  0  0  0  0  0  0  0  0  0  0  0
    2.4590  -13.3700    2.9890 H   0  0  0  0  0  0  0  0  0  0  0  0
    3.0950  -14.3700    1.2410 C   0  0  0  0  0  0  0  0  0  0  0  0
    2.0400  -15.0570    0.3620 C   0  0  0  0  0  2  0  0  0  0  0  0
    2.5030  -14.9050   -1.0850 C   0  0  0  0  0  2  0  0  0  0  0  0
    3.6090  -13.8610   -1.0900 C   0  0  0  0  0  2  0  0  0  0  0  0
    4.2010  -13.8510    0.3150 C   0  0  0  0  0  2  0  0  0  0  0  0
    3.6450  -15.2640    2.4020 C   0  0  0  0  0  0  0  0  0  0  0  0
    3.5890  -16.5040    2.2680 O   0  0  0  0  0  0  0  0  0  0  0  0
    4.2460  -14.8510    3.5470 N   0  0  0  0  0  0  0  0  0  0  0  0
    4.7230  -15.6370    3.9750 H   0  0  0  0  0  0  0  0  0  0  0  0
    4.3740  -13.6500    4.2600 C   0  0  0  0  0  0  0  0  0  0  0  0
    5.3320  -12.6770    4.0200 C   0  0  0  0  0  3  0  0  0  0  0  0
    5.3460  -11.4810    4.7530 C   0  0  0  0  0  3  0  0  0  0  0  0
    4.3980  -11.2340    5.7490 C   0  0  0  0  0  0  0  0  0  0  0  0
    3.4090  -12.1970    5.9640 C   0  0  0  0  0  3  0  0  0  0  0  0
    3.3910  -13.3840    5.2210 C   0  0  0  0  0  3  0  0  0  0  0  0
    4.3600   -9.9820    6.5180 C   0  0  0  0  0  3  0  0  0  0  0  0
    3.5240   -9.7170    7.5350 C   0  0  0  0  0  3  0  0  0  0  0  0
    3.5510   -8.3900    8.2950 C   0  0  0  0  0  0  0  0  0  0  0  0
    4.4320   -7.5860    7.8790 O   0  0  0  0  0  0  0  0  0  0  0  0
    2.7070   -8.2570    9.2240 O   0  0  0  0  0  1  0  0  0  0  0  0
  2  1  1  0  0  0  0
  3  2  2  0  0  0  0
  4  3  1  0  0  0  0
  5  4  2  0  0  0  0
  5  6  1  0  0  0  0
  6  2  1  0  0  0  0
  7  5  1  0  0  0  0
  8  7  1  0  0  0  0
  8  9  1  0  0  0  0
  9 10  1  0  0  0  0
 10 11  1  0  0  0  0
 11 12  2  0  0  0  0
 11  4  1  0  0  0  0
 12 19  1  0  0  0  0
 13 12  1  0  0  0  0
 14 13  1  0  0  0  0
 15 14  2  0  0  0  0
 16 17  2  0  0  0  0
 16 15  1  0  0  0  0
 17 18  1  0  0  0  0
 18 10  1  0  0  0  0
 18 13  2  0  0  0  0
 19 24  1  0  0  0  0
 20 19  1  0  0  0  0
 20 21  1  0  0  0  0
 21 22  1  0  0  0  0
 22 23  1  0  0  0  0
 24 23  1  0  0  0  0
 25 27  1  0  0  0  0
 25 16  1  0  0  0  0
 26 25  2  0  0  0  0
 27 28  1  0  0  0  0
 29 27  1  0  0  0  0
 29 34  1  0  0  0  0
 30 29  1  0  0  0  0
 31 30  1  0  0  0  0
 32 31  1  0  0  0  0
 32 33  1  0  0  0  0
 33 29  1  0  0  0  0
 34 36  1  0  0  0  0
 35 34  2  0  0  0  0
 36 37  1  0  0  0  0
 36 38  1  0  0  0  0
 38 43  1  0  0  0  0
 39 38  2  0  0  0  0
 39 40  1  0  0  0  0
 40 41  2  0  0  0  0
 41 42  1  0  0  0  0
 41 44  1  0  0  0  0
 43 42  2  0  0  0  0
 44 45  2  0  0  0  0
 45 46  1  0  0  0  0
 46 48  1  0  0  0  0
 47 46  2  0  0  0  0
M  END
>  <minimizedAffinity>
-7.97804546

$$$$

 OpenBabel09122223003D

 48 54  0  0  0  0  0  0  0  0999 V2000
   -0.0840   -8.5960   18.8150 C   0  0  0  0  0  1  0  0  0  0  0  0
    0.5970   -8.2520   17.5390 C   0  0  0  0  0  0  0  0  0  0  0  0
    0.5500   -7.0680   16.9700 N   0  0  0  0  0  0  0  0  0  0  0  0
    1.2620   -7.0860   15.7940 C   0  0  0  0  0  0  0  0  0  0  0  0
    1.9070   -8.2790   15.5110 C   0  0  0  0  0  0  0  0  0  0  0  0
    1.5290   -9.4360   16.7120 S   0  0  0  0  0  0  0  0  0  0  0  0
    2.8930   -8.5570   14.4230 C   0  0  0  0  0  2  0  0  0  0  0  0
    2.3360   -8.3980   13.0100 C   0  0  0  0  0  2  0  0  0  0  0  0
    1.2790   -7.3130   12.8140 C   0  0  0  0  0  2  0  0  0  0  0  0
    1.5320   -6.0600   13.5110 N   0  0  0  0  0  0  0  0  0  0  0  0
    1.3680   -5.9090   14.8730 C   0  0  0  0  0  0  0  0  0  0  0  0
    1.3060   -4.5510   15.1540 C   0  0  0  0  0  0  0  0  0  0  0  0
    1.5680   -3.8730   13.9040 C   0  0  0  0  0  0  0  0  0  0  0  0
    1.6890   -2.5130   13.5340 C   0  0  0  0  0  3  0  0  0  0  0  0
    1.9480   -2.1590   12.2020 C   0  0  0  0  0  3  0  0  0  0  0  0
    2.0800   -3.1450   11.2230 C   0  0  0  0  0  0  0  0  0  0  0  0
    1.9830   -4.5010   11.5700 C   0  0  0  0  0  3  0  0  0  0  0  0
    1.7220   -4.8390   12.9090 C   0  0  0  0  0  0  0  0  0  0  0  0
    1.0830   -3.8380   16.4730 C   0  0  0  0  0  3  0  0  0  0  0  0
    2.3760   -3.2270   17.0400 C   0  0  0  0  0  2  0  0  0  0  0  0
    2.1390   -2.5330   18.3790 C   0  0  0  0  0  2  0  0  0  0  0  0
    1.0040   -1.5190   18.2980 C   0  0  0  0  0  2  0  0  0  0  0  0
   -0.2860   -2.1650   17.8010 C   0  0  0  0  0  2  0  0  0  0  0  0
   -0.0890   -2.8440   16.4470 C   0  0  0  0  0  2  0  0  0  0  0  0
    2.3230   -2.8280    9.7830 C   0  0  0  0  0  0  0  0  0  0  0  0
    1.8220   -1.8190    9.3010 O   0  0  0  0  0  0  0  0  0  0  0  0
    3.1520   -3.6810    9.0980 N   0  0  0  0  0  0  0  0  0  0  0  0
    3.5960   -4.4470    9.5980 H   0  0  0  0  0  0  0  0  0  0  0  0
    3.6850   -3.4960    7.7140 C   0  0  0  0  0  0  0  0  0  0  0  0
    2.5910   -2.9980    6.7580 C   0  0  0  0  0  2  0  0  0  0  0  0
    3.0300   -1.6230    6.2620 C   0  0  0  0  0  2  0  0  0  0  0  0
    4.1690   -1.1690    7.1620 C   0  0  0  0  0  2  0  0  0  0  0  0
    4.7890   -2.4340    7.7460 C   0  0  0  0  0  2  0  0  0  0  0  0
    4.2290   -4.9260    7.3780 C   0  0  0  0  0  0  0  0  0  0  0  0
    5.4410   -5.0460    7.1040 O   0  0  0  0  0  0  0  0  0  0  0  0
    3.5410   -6.0960    7.4020 N   0  0  0  0  0  0  0  0  0  0  0  0
    4.1980   -6.8690    7.3980 H   0  0  0  0  0  0  0  0  0  0  0  0
    2.1970   -6.4920    7.4360 C   0  0  0  0  0  0  0  0  0  0  0  0
    1.4000   -6.7130    6.3220 C   0  0  0  0  0  3  0  0  0  0  0  0
    0.0790   -7.1610    6.4580 C   0  0  0  0  0  3  0  0  0  0  0  0
   -0.4790   -7.3970    7.7170 C   0  0  0  0  0  0  0  0  0  0  0  0
    0.3350   -7.2120    8.8370 C   0  0  0  0  0  3  0  0  0  0  0  0
    1.6590   -6.7770    8.6970 C   0  0  0  0  0  3  0  0  0  0  0  0
   -1.8490   -7.8950    7.9010 C   0  0  0  0  0  3  0  0  0  0  0  0
   -2.8930   -7.6190    7.1020 C   0  0  0  0  0  3  0  0  0  0  0  0
   -4.2920   -8.1840    7.3550 C   0  0  0  0  0  0  0  0  0  0  0  0
   -4.9890   -7.4780    8.1380 O   0  0  0  0  0  1  0  0  0  0  0  0
   -4.5790   -9.2610    6.7640 O   0  0  0  0  0  0  0  0  0  0  0  0
  2  1  1  0  0  0  0
  3  2  2  0  0  0  0
  4  3  1  0  0  0  0
  5  4  2  0  0  0  0
  5  6  1  0  0  0  0
  6  2  1  0  0  0  0
  7  5  1  0  0  0  0
  8  7  1  0  0  0  0
  9  8  1  0  0  0  0
  9 10  1  0  0  0  0
 10 11  1  0  0  0  0
 11 12  2  0  0  0  0
 11  4  1  0  0  0  0
 12 19  1  0  0  0  0
 13 12  1  0  0  0  0
 14 13  1  0  0  0  0
 15 14  2  0  0  0  0
 16 17  2  0  0  0  0
 16 15  1  0  0  0  0
 17 18  1  0  0  0  0
 18 10  1  0  0  0  0
 18 13  2  0  0  0  0
 19 20  1  0  0  0  0
 20 21  1  0  0  0  0
 22 21  1  0  0  0  0
 23 22  1  0  0  0  0
 24 19  1  0  0  0  0
 24 23  1  0  0  0  0
 25 16  1  0  0  0  0
 26 25  2  0  0  0  0
 27 28  1  0  0  0  0
 27 25  1  0  0  0  0
 29 33  1  0  0  0  0
 29 27  1  0  0  0  0
 30 29  1  0  0  0  0
 31 30  1  0  0  0  0
 31 32  1  0  0  0  0
 32 33  1  0  0  0  0
 34 36  1  0  0  0  0
 34 29  1  0  0  0  0
 35 34  2  0  0  0  0
 36 38  1  0  0  0  0
 37 36  1  0  0  0  0
 38 43  1  0  0  0  0
 39 40  1  0  0  0  0
 39 38  2  0  0  0  0
 40 41  2  0  0  0  0
 41 44  1  0  0  0  0
 41 42  1  0  0  0  0
 43 42  2  0  0  0  0
 45 46  1  0  0  0  0
 45 44  2  0  0  0  0
 46 47  1  0  0  0  0
 48 46  2  0  0  0  0
M  END
>  <minimizedAffinity>
-7.94482517

$$$$

 OpenBabel09122223003D

 48 54  0  0  0  0  0  0  0  0999 V2000
    4.3830  -12.7540   -0.5550 C   0  0  0  0  0  1  0  0  0  0  0  0
    3.5620  -12.1180    0.5080 C   0  0  0  0  0  0  0  0  0  0  0  0
    3.9110  -11.0340    1.1660 N   0  0  0  0  0  0  0  0  0  0  0  0
    2.9470  -10.7190    2.0940 C   0  0  0  0  0  0  0  0  0  0  0  0
    1.8300  -11.5390    2.0880 C   0  0  0  0  0  0  0  0  0  0  0  0
    2.0430  -12.7930    0.9450 S   0  0  0  0  0  0  0  0  0  0  0  0
    0.5490  -11.3540    2.8350 C   0  0  0  0  0  2  0  0  0  0  0  0
    0.6940  -11.3820    4.3550 C   0  0  0  0  0  2  0  0  0  0  0  0
    1.9920  -10.8110    4.9240 C   0  0  0  0  0  2  0  0  0  0  0  0
    2.4670   -9.5890    4.2920 N   0  0  0  0  0  0  0  0  0  0  0  0
    3.0590   -9.5680    3.0450 C   0  0  0  0  0  0  0  0  0  0  0  0
    3.7330   -8.3620    2.9070 C   0  0  0  0  0  0  0  0  0  0  0  0
    3.4170   -7.5910    4.0880 C   0  0  0  0  0  0  0  0  0  0  0  0
    3.7450   -6.2850    4.5230 C   0  0  0  0  0  3  0  0  0  0  0  0
    3.2800   -5.8080    5.7570 C   0  0  0  0  0  3  0  0  0  0  0  0
    2.4940   -6.6190    6.5760 C   0  0  0  0  0  0  0  0  0  0  0  0
    2.1390   -7.9110    6.1570 C   0  0  0  0  0  3  0  0  0  0  0  0
    2.6140   -8.3740    4.9180 C   0  0  0  0  0  0  0  0  0  0  0  0
    4.5870   -7.8490    1.7640 C   0  0  0  0  0  3  0  0  0  0  0  0
    3.7820   -7.6490    0.4690 C   0  0  0  0  0  2  0  0  0  0  0  0
    4.6610   -7.1550   -0.6780 C   0  0  0  0  0  2  0  0  0  0  0  0
    5.4520   -5.9110   -0.2880 C   0  0  0  0  0  2  0  0  0  0  0  0
    6.2970   -6.1560    0.9580 C   0  0  0  0  0  2  0  0  0  0  0  0
    5.4410   -6.6260    2.1330 C   0  0  0  0  0  2  0  0  0  0  0  0
    1.9970   -6.1790    7.9140 C   0  0  0  0  0  0  0  0  0  0  0  0
    0.9540   -6.6510    8.3490 O   0  0  0  0  0  0  0  0  0  0  0  0
    2.7900   -5.2940    8.6020 N   0  0  0  0  0  0  0  0  0  0  0  0
    3.6840   -5.0190    8.2040 H   0  0  0  0  0  0  0  0  0  0  0  0
    2.6090   -4.8350   10.0130 C   0  0  0  0  0  0  0  0  0  0  0  0
    1.2040   -4.2560   10.2340 C   0  0  0  0  0  2  0  0  0  0  0  0
    0.5160   -5.1450   11.2670 C   0  0  0  0  0  2  0  0  0  0  0  0
    1.3540   -6.4090   11.3920 C   0  0  0  0  0  2  0  0  0  0  0  0
    2.7640   -6.0390   10.9480 C   0  0  0  0  0  2  0  0  0  0  0  0
    3.7660   -3.7920   10.1710 C   0  0  0  0  0  0  0  0  0  0  0  0
    4.7640   -3.9030    9.4300 O   0  0  0  0  0  0  0  0  0  0  0  0
    3.7970   -2.7140   10.9960 N   0  0  0  0  0  0  0  0  0  0  0  0
    4.5380   -2.0880   10.6990 H   0  0  0  0  0  0  0  0  0  0  0  0
    3.0840   -2.2620   12.1160 C   0  0  0  0  0  0  0  0  0  0  0  0
    2.3740   -1.0730   12.1830 C   0  0  0  0  0  3  0  0  0  0  0  0
    1.6460   -0.7320   13.3320 C   0  0  0  0  0  3  0  0  0  0  0  0
    1.6140   -1.5760   14.4450 C   0  0  0  0  0  0  0  0  0  0  0  0
    2.2970   -2.7910   14.3620 C   0  0  0  0  0  3  0  0  0  0  0  0
    3.0130   -3.1340   13.2080 C   0  0  0  0  0  3  0  0  0  0  0  0
    0.8390   -1.2690   15.6550 C   0  0  0  0  0  3  0  0  0  0  0  0
    0.4890   -2.1540   16.6020 C   0  0  0  0  0  3  0  0  0  0  0  0
   -0.3140   -1.7550   17.8410 C   0  0  0  0  0  0  0  0  0  0  0  0
   -1.3520   -1.0840   17.5780 O   0  0  0  0  0  0  0  0  0  0  0  0
    0.1430   -2.1370   18.9540 O   0  0  0  0  0  1  0  0  0  0  0  0
  1  2  1  0  0  0  0
  2  6  1  0  0  0  0
  2  3  2  0  0  0  0
  3  4  1  0  0  0  0
  4 11  1  0  0  0  0
  5  4  2  0  0  0  0
  5  7  1  0  0  0  0
  6  5  1  0  0  0  0
  7  8  1  0  0  0  0
  8  9  1  0  0  0  0
 10 18  1  0  0  0  0
 10  9  1  0  0  0  0
 11 10  1  0  0  0  0
 12 11  2  0  0  0  0
 12 13  1  0  0  0  0
 13 14  2  0  0  0  0
 13 18  1  0  0  0  0
 14 15  1  0  0  0  0
 15 16  2  0  0  0  0
 16 25  1  0  0  0  0
 17 16  1  0  0  0  0
 18 17  2  0  0  0  0
 19 24  1  0  0  0  0
 19 12  1  0  0  0  0
 20 19  1  0  0  0  0
 21 22  1  0  0  0  0
 21 20  1  0  0  0  0
 22 23  1  0  0  0  0
 23 24  1  0  0  0  0
 25 26  2  0  0  0  0
 25 27  1  0  0  0  0
 27 29  1  0  0  0  0
 28 27  1  0  0  0  0
 29 34  1  0  0  0  0
 29 30  1  0  0  0  0
 29 33  1  0  0  0  0
 30 31  1  0  0  0  0
 31 32  1  0  0  0  0
 33 32  1  0  0  0  0
 34 36  1  0  0  0  0
 35 34  2  0  0  0  0
 36 38  1  0  0  0  0
 37 36  1  0  0  0  0
 38 39  2  0  0  0  0
 38 43  1  0  0  0  0
 39 40  1  0  0  0  0
 40 41  2  0  0  0  0
 41 44  1  0  0  0  0
 42 41  1  0  0  0  0
 43 42  2  0  0  0  0
 44 45  2  0  0  0  0
 45 46  1  0  0  0  0
 46 48  1  0  0  0  0
 47 46  2  0  0  0  0
M  END
>  <minimizedAffinity>
-7.81959009

$$$$

 OpenBabel09122223003D

 48 54  0  0  0  0  0  0  0  0999 V2000
    1.0290   -2.5030   13.2870 C   0  0  0  0  0  1  0  0  0  0  0  0
    1.4650   -3.4340   12.2140 C   0  0  0  0  0  0  0  0  0  0  0  0
    2.0690   -3.0600   11.1080 N   0  0  0  0  0  0  0  0  0  0  0  0
    2.3160   -4.1560   10.3160 C   0  0  0  0  0  0  0  0  0  0  0  0
    1.9540   -5.3760   10.8640 C   0  0  0  0  0  0  0  0  0  0  0  0
    1.1970   -5.1240   12.3770 S   0  0  0  0  0  0  0  0  0  0  0  0
    2.2530   -6.7450   10.3440 C   0  0  0  0  0  2  0  0  0  0  0  0
    1.6350   -7.0520    8.9820 C   0  0  0  0  0  2  0  0  0  0  0  0
    1.5210   -5.8800    8.0080 C   0  0  0  0  0  2  0  0  0  0  0  0
    2.6690   -4.9870    7.9660 N   0  0  0  0  0  0  0  0  0  0  0  0
    2.9500   -4.0730    8.9620 C   0  0  0  0  0  0  0  0  0  0  0  0
    3.8440   -3.1410    8.4530 C   0  0  0  0  0  0  0  0  0  0  0  0
    4.1960   -3.6050    7.1300 C   0  0  0  0  0  0  0  0  0  0  0  0
    5.0810   -3.1380    6.1300 C   0  0  0  0  0  3  0  0  0  0  0  0
    5.2030   -3.8220    4.9120 C   0  0  0  0  0  3  0  0  0  0  0  0
    4.4450   -4.9680    4.6670 C   0  0  0  0  0  0  0  0  0  0  0  0
    3.5750   -5.4610    5.6520 C   0  0  0  0  0  3  0  0  0  0  0  0
    3.4640   -4.7640    6.8670 C   0  0  0  0  0  0  0  0  0  0  0  0
    4.4340   -1.9040    9.1010 C   0  0  0  0  0  3  0  0  0  0  0  0
    3.3830   -0.8110    9.3550 C   0  0  0  0  0  2  0  0  0  0  0  0
    3.9970    0.4370    9.9850 C   0  0  0  0  0  2  0  0  0  0  0  0
    4.7990    0.1010   11.2380 C   0  0  0  0  0  2  0  0  0  0  0  0
    5.8830   -0.9320   10.9440 C   0  0  0  0  0  2  0  0  0  0  0  0
    5.2960   -2.2060   10.3380 C   0  0  0  0  0  2  0  0  0  0  0  0
    4.5080   -5.7180    3.3780 C   0  0  0  0  0  0  0  0  0  0  0  0
    4.4840   -5.0960    2.3220 O   0  0  0  0  0  0  0  0  0  0  0  0
    4.6430   -7.0820    3.4670 N   0  0  0  0  0  0  0  0  0  0  0  0
    4.7420   -7.5100    4.3840 H   0  0  0  0  0  0  0  0  0  0  0  0
    4.8960   -8.0350    2.3430 C   0  0  0  0  0  0  0  0  0  0  0  0
    3.8670   -7.8540    1.2180 C   0  0  0  0  0  2  0  0  0  0  0  0
    4.6410   -7.4170   -0.0230 C   0  0  0  0  0  2  0  0  0  0  0  0
    6.0320   -7.0130    0.4410 C   0  0  0  0  0  2  0  0  0  0  0  0
    6.2810   -7.7470    1.7530 C   0  0  0  0  0  2  0  0  0  0  0  0
    4.8210   -9.4220    3.0650 C   0  0  0  0  0  0  0  0  0  0  0  0
    5.8220  -10.1650    3.0190 O   0  0  0  0  0  0  0  0  0  0  0  0
    3.7940   -9.9110    3.8060 N   0  0  0  0  0  0  0  0  0  0  0  0
    4.1230  -10.6980    4.3540 H   0  0  0  0  0  0  0  0  0  0  0  0
    2.4390   -9.6080    4.0020 C   0  0  0  0  0  0  0  0  0  0  0  0
    1.3750  -10.3600    3.5270 C   0  0  0  0  0  3  0  0  0  0  0  0
    0.0510  -10.0040    3.8220 C   0  0  0  0  0  3  0  0  0  0  0  0
   -0.2390   -8.8810    4.6010 C   0  0  0  0  0  0  0  0  0  0  0  0
    0.8330   -8.1460    5.1130 C   0  0  0  0  0  3  0  0  0  0  0  0
    2.1550   -8.5120    4.8270 C   0  0  0  0  0  3  0  0  0  0  0  0
   -1.6100   -8.4920    4.9580 C   0  0  0  0  0  3  0  0  0  0  0  0
   -1.9490   -7.4480    5.7310 C   0  0  0  0  0  3  0  0  0  0  0  0
   -3.4030   -7.1010    6.0520 C   0  0  0  0  0  0  0  0  0  0  0  0
   -3.6840   -5.8820    5.8750 O   0  0  0  0  0  0  0  0  0  0  0  0
   -4.1350   -8.0520    6.4440 O   0  0  0  0  0  1  0  0  0  0  0  0
  2  6  1  0  0  0  0
  2  1  1  0  0  0  0
  3  2  2  0  0  0  0
  4  5  2  0  0  0  0
  4  3  1  0  0  0  0
  5  6  1  0  0  0  0
  7  5  1  0  0  0  0
  8  7  1  0  0  0  0
  9  8  1  0  0  0  0
 10  9  1  0  0  0  0
 10 11  1  0  0  0  0
 11  4  1  0  0  0  0
 12 11  2  0  0  0  0
 12 19  1  0  0  0  0
 13 12  1  0  0  0  0
 14 13  2  0  0  0  0
 15 14  1  0  0  0  0
 16 15  2  0  0  0  0
 16 17  1  0  0  0  0
 17 18  2  0  0  0  0
 18 13  1  0  0  0  0
 18 10  1  0  0  0  0
 19 20  1  0  0  0  0
 19 24  1  0  0  0  0
 20 21  1  0  0  0  0
 21 22  1  0  0  0  0
 23 22  1  0  0  0  0
 24 23  1  0  0  0  0
 25 27  1  0  0  0  0
 25 16  1  0  0  0  0
 26 25  2  0  0  0  0
 27 28  1  0  0  0  0
 29 34  1  0  0  0  0
 29 27  1  0  0  0  0
 30 29  1  0  0  0  0
 31 32  1  0  0  0  0
 31 30  1  0  0  0  0
 32 33  1  0  0  0  0
 33 29  1  0  0  0  0
 34 36  1  0  0  0  0
 35 34  2  0  0  0  0
 36 38  1  0  0  0  0
 36 37  1  0  0  0  0
 38 43  1  0  0  0  0
 39 40  1  0  0  0  0
 39 38  2  0  0  0  0
 40 41  2  0  0  0  0
 41 44  1  0  0  0  0
 41 42  1  0  0  0  0
 43 42  2  0  0  0  0
 44 45  2  0  0  0  0
 45 46  1  0  0  0  0
 46 48  1  0  0  0  0
 47 46  2  0  0  0  0
M  END
>  <minimizedAffinity>
-7.81271362

$$$$

 OpenBabel09122223003D

 48 54  0  0  0  0  0  0  0  0999 V2000
    4.0060    0.8870   10.6590 C   0  0  0  0  0  1  0  0  0  0  0  0
    3.3610   -0.4450   10.8020 C   0  0  0  0  0  0  0  0  0  0  0  0
    3.1680   -1.0550   11.9510 N   0  0  0  0  0  0  0  0  0  0  0  0
    2.5720   -2.2750   11.7380 C   0  0  0  0  0  0  0  0  0  0  0  0
    2.2530   -2.5560   10.4200 C   0  0  0  0  0  0  0  0  0  0  0  0
    2.8040   -1.2880    9.4120 S   0  0  0  0  0  0  0  0  0  0  0  0
    1.4470   -3.6970    9.8900 C   0  0  0  0  0  2  0  0  0  0  0  0
    2.0550   -5.0740   10.1490 C   0  0  0  0  0  2  0  0  0  0  0  0
    2.8350   -5.2390   11.4520 C   0  0  0  0  0  2  0  0  0  0  0  0
    2.2390   -4.6100   12.6210 N   0  0  0  0  0  0  0  0  0  0  0  0
    2.2590   -3.2460   12.8350 C   0  0  0  0  0  0  0  0  0  0  0  0
    1.9740   -3.0140   14.1740 C   0  0  0  0  0  0  0  0  0  0  0  0
    1.6540   -4.3040   14.7430 C   0  0  0  0  0  0  0  0  0  0  0  0
    1.2400   -4.7340   16.0260 C   0  0  0  0  0  3  0  0  0  0  0  0
    1.0060   -6.0930   16.2790 C   0  0  0  0  0  3  0  0  0  0  0  0
    1.1870   -7.0400   15.2700 C   0  0  0  0  0  0  0  0  0  0  0  0
    1.5790   -6.6350   13.9850 C   0  0  0  0  0  3  0  0  0  0  0  0
    1.8100   -5.2700   13.7470 C   0  0  0  0  0  0  0  0  0  0  0  0
    1.9200   -1.7110   14.9470 C   0  0  0  0  0  3  0  0  0  0  0  0
    0.5660   -0.9970   14.8060 C   0  0  0  0  0  2  0  0  0  0  0  0
    0.5360    0.3240   15.5710 C   0  0  0  0  0  2  0  0  0  0  0  0
    0.9490    0.1440   17.0280 C   0  0  0  0  0  2  0  0  0  0  0  0
    2.3270   -0.5010   17.1400 C   0  0  0  0  0  2  0  0  0  0  0  0
    2.3810   -1.8410   16.4070 C   0  0  0  0  0  2  0  0  0  0  0  0
    0.9860   -8.5040   15.4900 C   0  0  0  0  0  0  0  0  0  0  0  0
   -0.1100   -8.9080   15.8600 O   0  0  0  0  0  0  0  0  0  0  0  0
    2.0530   -9.3200   15.2040 N   0  0  0  0  0  0  0  0  0  0  0  0
    2.9000   -8.9100   14.8180 H   0  0  0  0  0  0  0  0  0  0  0  0
    2.0590  -10.8150   15.1750 C   0  0  0  0  0  0  0  0  0  0  0  0
    1.3790  -11.3970   16.4240 C   0  0  0  0  0  2  0  0  0  0  0  0
    0.1600  -12.1780   15.9390 C   0  0  0  0  0  2  0  0  0  0  0  0
   -0.0750  -11.7800   14.4900 C   0  0  0  0  0  2  0  0  0  0  0  0
    1.2650  -11.2890   13.9530 C   0  0  0  0  0  2  0  0  0  0  0  0
    3.5880  -11.1360   15.0680 C   0  0  0  0  0  0  0  0  0  0  0  0
    4.1600  -11.6180   16.0670 O   0  0  0  0  0  0  0  0  0  0  0  0
    4.3820  -11.0050   13.9750 N   0  0  0  0  0  0  0  0  0  0  0  0
    5.2410  -11.5250   14.1230 H   0  0  0  0  0  0  0  0  0  0  0  0
    4.3150  -10.3600   12.7320 C   0  0  0  0  0  0  0  0  0  0  0  0
    4.1890  -10.9960   11.5060 C   0  0  0  0  0  3  0  0  0  0  0  0
    4.0760  -10.2590   10.3190 C   0  0  0  0  0  3  0  0  0  0  0  0
    4.0880   -8.8620   10.3310 C   0  0  0  0  0  0  0  0  0  0  0  0
    4.1740   -8.2210   11.5680 C   0  0  0  0  0  3  0  0  0  0  0  0
    4.2750   -8.9600   12.7540 C   0  0  0  0  0  3  0  0  0  0  0  0
    3.9410   -8.0540    9.1130 C   0  0  0  0  0  3  0  0  0  0  0  0
    3.4850   -8.5010    7.9310 C   0  0  0  0  0  3  0  0  0  0  0  0
    3.3530   -7.5930    6.7070 C   0  0  0  0  0  0  0  0  0  0  0  0
    3.7750   -8.1200    5.6390 O   0  0  0  0  0  0  0  0  0  0  0  0
    2.8470   -6.4540    6.9030 O   0  0  0  0  0  1  0  0  0  0  0  0
  1  2  1  0  0  0  0
  2  3  2  0  0  0  0
  4  3  1  0  0  0  0
  4 11  1  0  0  0  0
  5  4  2  0  0  0  0
  6  5  1  0  0  0  0
  6  2  1  0  0  0  0
  7  8  1  0  0  0  0
  7  5  1  0  0  0  0
  8  9  1  0  0  0  0
  9 10  1  0  0  0  0
 10 11  1  0  0  0  0
 10 18  1  0  0  0  0
 11 12  2  0  0  0  0
 12 13  1  0  0  0  0
 12 19  1  0  0  0  0
 13 14  1  0  0  0  0
 14 15  2  0  0  0  0
 16 25  1  0  0  0  0
 16 15  1  0  0  0  0
 17 16  2  0  0  0  0
 18 17  1  0  0  0  0
 18 13  2  0  0  0  0
 19 24  1  0  0  0  0
 20 19  1  0  0  0  0
 20 21  1  0  0  0  0
 21 22  1  0  0  0  0
 22 23  1  0  0  0  0
 24 23  1  0  0  0  0
 25 26  2  0  0  0  0
 27 25  1  0  0  0  0
 28 27  1  0  0  0  0
 29 27  1  0  0  0  0
 29 30  1  0  0  0  0
 31 30  1  0  0  0  0
 32 31  1  0  0  0  0
 33 32  1  0  0  0  0
 33 29  1  0  0  0  0
 34 29  1  0  0  0  0
 34 35  2  0  0  0  0
 36 37  1  0  0  0  0
 36 34  1  0  0  0  0
 38 43  1  0  0  0  0
 38 36  1  0  0  0  0
 39 38  2  0  0  0  0
 40 41  2  0  0  0  0
 40 39  1  0  0  0  0
 41 42  1  0  0  0  0
 42 43  2  0  0  0  0
 44 41  1  0  0  0  0
 45 44  2  0  0  0  0
 46 48  1  0  0  0  0
 46 45  1  0  0  0  0
 47 46  2  0  0  0  0
M  END
>  <minimizedAffinity>
-7.67610121

$$$$

 OpenBabel09122223003D

 48 54  0  0  0  0  0  0  0  0999 V2000
    0.6670    0.4980   16.0350 C   0  0  0  0  0  1  0  0  0  0  0  0
    0.9590   -0.7450   15.2740 C   0  0  0  0  0  0  0  0  0  0  0  0
    1.5660   -0.7750   14.1080 N   0  0  0  0  0  0  0  0  0  0  0  0
    1.6620   -2.0720   13.6640 C   0  0  0  0  0  0  0  0  0  0  0  0
    1.1810   -3.0340   14.5370 C   0  0  0  0  0  0  0  0  0  0  0  0
    0.5050   -2.2750   15.9130 S   0  0  0  0  0  0  0  0  0  0  0  0
    1.3050   -4.5190   14.4310 C   0  0  0  0  0  2  0  0  0  0  0  0
    0.6130   -5.1250   13.2110 C   0  0  0  0  0  2  0  0  0  0  0  0
    0.6020   -4.2740   11.9430 C   0  0  0  0  0  2  0  0  0  0  0  0
    1.8430   -3.5730   11.6500 N   0  0  0  0  0  0  0  0  0  0  0  0
    2.2580   -2.4530   12.3430 C   0  0  0  0  0  0  0  0  0  0  0  0
    3.2360   -1.8160   11.5920 C   0  0  0  0  0  0  0  0  0  0  0  0
    3.4900   -2.6760   10.4580 C   0  0  0  0  0  0  0  0  0  0  0  0
    4.3910   -2.6200    9.3680 C   0  0  0  0  0  3  0  0  0  0  0  0
    4.3950   -3.6310    8.3960 C   0  0  0  0  0  3  0  0  0  0  0  0
    3.5040   -4.7020    8.4880 C   0  0  0  0  0  0  0  0  0  0  0  0
    2.6150   -4.7880    9.5700 C   0  0  0  0  0  3  0  0  0  0  0  0
    2.6230   -3.7660   10.5350 C   0  0  0  0  0  0  0  0  0  0  0  0
    3.9840   -0.5250   11.8600 C   0  0  0  0  0  3  0  0  0  0  0  0
    5.4400   -0.7650   12.2930 C   0  0  0  0  0  2  0  0  0  0  0  0
    6.1720    0.5430   12.5820 C   0  0  0  0  0  2  0  0  0  0  0  0
    6.0670    1.5190   11.4150 C   0  0  0  0  0  2  0  0  0  0  0  0
    4.6120    1.7970   11.0510 C   0  0  0  0  0  2  0  0  0  0  0  0
    3.8580    0.5070   10.7280 C   0  0  0  0  0  2  0  0  0  0  0  0
    3.4400   -5.7890    7.4670 C   0  0  0  0  0  0  0  0  0  0  0  0
    4.2260   -5.7750    6.5270 O   0  0  0  0  0  0  0  0  0  0  0  0
    2.5160   -6.7830    7.6850 N   0  0  0  0  0  0  0  0  0  0  0  0
    1.9620   -6.7630    8.5370 H   0  0  0  0  0  0  0  0  0  0  0  0
    2.3680   -8.0560    6.9160 C   0  0  0  0  0  0  0  0  0  0  0  0
    1.0550   -8.7700    7.2720 C   0  0  0  0  0  2  0  0  0  0  0  0
    0.2220   -8.8240    5.9940 C   0  0  0  0  0  2  0  0  0  0  0  0
    0.8650   -7.8660    5.0030 C   0  0  0  0  0  2  0  0  0  0  0  0
    2.3250   -7.7290    5.4200 C   0  0  0  0  0  2  0  0  0  0  0  0
    3.6580   -8.8410    7.3290 C   0  0  0  0  0  0  0  0  0  0  0  0
    4.3740   -9.3150    6.4240 O   0  0  0  0  0  0  0  0  0  0  0  0
    4.1420   -9.0300    8.5830 N   0  0  0  0  0  0  0  0  0  0  0  0
    5.1060   -9.3390    8.5250 H   0  0  0  0  0  0  0  0  0  0  0  0
    3.6630   -8.9020    9.8950 C   0  0  0  0  0  0  0  0  0  0  0  0
    2.7880   -9.7820   10.5150 C   0  0  0  0  0  3  0  0  0  0  0  0
    2.4080   -9.5980   11.8520 C   0  0  0  0  0  3  0  0  0  0  0  0
    2.8950   -8.5240   12.6020 C   0  0  0  0  0  0  0  0  0  0  0  0
    3.8070   -7.6610   11.9900 C   0  0  0  0  0  3  0  0  0  0  0  0
    4.1950   -7.8550   10.6580 C   0  0  0  0  0  3  0  0  0  0  0  0
    2.5450   -8.3140   14.0130 C   0  0  0  0  0  3  0  0  0  0  0  0
    1.3090   -8.3990   14.5310 C   0  0  0  0  0  3  0  0  0  0  0  0
    1.0250   -8.1740   16.0170 C   0  0  0  0  0  0  0  0  0  0  0  0
   -0.1890   -8.3320   16.3300 O   0  0  0  0  0  0  0  0  0  0  0  0
    2.0140   -7.8660   16.7390 O   0  0  0  0  0  1  0  0  0  0  0  0
  2  6  1  0  0  0  0
  2  1  1  0  0  0  0
  3  2  2  0  0  0  0
  4  3  1  0  0  0  0
  4  5  2  0  0  0  0
  5  6  1  0  0  0  0
  7  5  1  0  0  0  0
  8  7  1  0  0  0  0
  9  8  1  0  0  0  0
 10  9  1  0  0  0  0
 10 11  1  0  0  0  0
 11  4  1  0  0  0  0
 12 19  1  0  0  0  0
 12 11  2  0  0  0  0
 13 18  1  0  0  0  0
 13 12  1  0  0  0  0
 14 13  2  0  0  0  0
 15 16  2  0  0  0  0
 15 14  1  0  0  0  0
 16 17  1  0  0  0  0
 17 18  2  0  0  0  0
 18 10  1  0  0  0  0
 19 20  1  0  0  0  0
 20 21  1  0  0  0  0
 22 21  1  0  0  0  0
 23 22  1  0  0  0  0
 24 23  1  0  0  0  0
 24 19  1  0  0  0  0
 25 27  1  0  0  0  0
 25 16  1  0  0  0  0
 26 25  2  0  0  0  0
 27 28  1  0  0  0  0
 29 30  1  0  0  0  0
 29 34  1  0  0  0  0
 29 27  1  0  0  0  0
 31 30  1  0  0  0  0
 32 33  1  0  0  0  0
 32 31  1  0  0  0  0
 33 29  1  0  0  0  0
 34 36  1  0  0  0  0
 35 34  2  0  0  0  0
 36 38  1  0  0  0  0
 37 36  1  0  0  0  0
 38 39  2  0  0  0  0
 38 43  1  0  0  0  0
 39 40  1  0  0  0  0
 40 41  2  0  0  0  0
 41 44  1  0  0  0  0
 42 41  1  0  0  0  0
 43 42  2  0  0  0  0
 44 45  2  0  0  0  0
 45 46  1  0  0  0  0
 46 47  2  0  0  0  0
 46 48  1  0  0  0  0
M  END
>  <minimizedAffinity>
-7.63478041

$$$$

 OpenBabel09122223003D

 48 54  0  0  0  0  0  0  0  0999 V2000
    3.2190   -8.2320    4.9550 C   0  0  0  0  0  1  0  0  0  0  0  0
    2.4920   -7.6530    6.1150 C   0  0  0  0  0  0  0  0  0  0  0  0
    2.8720   -6.5750    6.7650 N   0  0  0  0  0  0  0  0  0  0  0  0
    1.9990   -6.3190    7.7960 C   0  0  0  0  0  0  0  0  0  0  0  0
    0.9140   -7.1770    7.8800 C   0  0  0  0  0  0  0  0  0  0  0  0
    1.0490   -8.3920    6.6840 S   0  0  0  0  0  0  0  0  0  0  0  0
   -0.2880   -7.0570    8.7590 C   0  0  0  0  0  2  0  0  0  0  0  0
    0.0140   -7.1200   10.2550 C   0  0  0  0  0  2  0  0  0  0  0  0
    1.3440   -6.5180   10.7050 C   0  0  0  0  0  2  0  0  0  0  0  0
    1.7120   -5.2640   10.0640 N   0  0  0  0  0  0  0  0  0  0  0  0
    2.1700   -5.1890    8.7640 C   0  0  0  0  0  0  0  0  0  0  0  0
    2.7870   -3.9570    8.5930 C   0  0  0  0  0  0  0  0  0  0  0  0
    2.5700   -3.2290    9.8230 C   0  0  0  0  0  0  0  0  0  0  0  0
    2.8990   -1.9240   10.2610 C   0  0  0  0  0  3  0  0  0  0  0  0
    2.5470   -1.4960   11.5490 C   0  0  0  0  0  3  0  0  0  0  0  0
    1.8770   -2.3560   12.4200 C   0  0  0  0  0  0  0  0  0  0  0  0
    1.5230   -3.6480   12.0010 C   0  0  0  0  0  3  0  0  0  0  0  0
    1.8830   -4.0620   10.7070 C   0  0  0  0  0  0  0  0  0  0  0  0
    3.5010   -3.3840    7.3860 C   0  0  0  0  0  3  0  0  0  0  0  0
    4.8260   -4.1060    7.0860 C   0  0  0  0  0  2  0  0  0  0  0  0
    5.5450   -3.5030    5.8810 C   0  0  0  0  0  2  0  0  0  0  0  0
    4.6350   -3.4270    4.6590 C   0  0  0  0  0  2  0  0  0  0  0  0
    3.3610   -2.6440    4.9620 C   0  0  0  0  0  2  0  0  0  0  0  0
    2.6030   -3.2410    6.1470 C   0  0  0  0  0  2  0  0  0  0  0  0
    1.5070   -1.9690   13.8140 C   0  0  0  0  0  0  0  0  0  0  0  0
    0.6900   -1.0720   13.9890 O   0  0  0  0  0  0  0  0  0  0  0  0
    2.0820   -2.6960   14.8270 N   0  0  0  0  0  0  0  0  0  0  0  0
    2.6840   -3.4820   14.5910 H   0  0  0  0  0  0  0  0  0  0  0  0
    1.7540   -2.6250   16.2830 C   0  0  0  0  0  0  0  0  0  0  0  0
    2.8680   -3.2510   17.1360 C   0  0  0  0  0  2  0  0  0  0  0  0
    3.4310   -2.1360   18.0140 C   0  0  0  0  0  2  0  0  0  0  0  0
    2.9110   -0.8220   17.4520 C   0  0  0  0  0  2  0  0  0  0  0  0
    1.6320   -1.1520   16.6910 C   0  0  0  0  0  2  0  0  0  0  0  0
    0.3880   -3.3880   16.3500 C   0  0  0  0  0  0  0  0  0  0  0  0
   -0.6260   -2.7500   16.6980 O   0  0  0  0  0  0  0  0  0  0  0  0
    0.1500   -4.6810   16.0130 N   0  0  0  0  0  0  0  0  0  0  0  0
   -0.8500   -4.8190   15.9090 H   0  0  0  0  0  0  0  0  0  0  0  0
    0.9120   -5.8340   15.7750 C   0  0  0  0  0  0  0  0  0  0  0  0
    1.5310   -6.5990   16.7520 C   0  0  0  0  0  3  0  0  0  0  0  0
    2.2280   -7.7690   16.4180 C   0  0  0  0  0  3  0  0  0  0  0  0
    2.3240   -8.2000   15.0930 C   0  0  0  0  0  0  0  0  0  0  0  0
    1.6680   -7.4520   14.1140 C   0  0  0  0  0  3  0  0  0  0  0  0
    0.9610   -6.2900   14.4520 C   0  0  0  0  0  3  0  0  0  0  0  0
    3.0190   -9.4360   14.7060 C   0  0  0  0  0  3  0  0  0  0  0  0
    3.1700  -10.5210   15.4810 C   0  0  0  0  0  3  0  0  0  0  0  0
    3.9020  -11.7760   15.0030 C   0  0  0  0  0  0  0  0  0  0  0  0
    4.2230  -12.5620   15.9380 O   0  0  0  0  0  1  0  0  0  0  0  0
    4.0920  -11.8770   13.7590 O   0  0  0  0  0  0  0  0  0  0  0  0
  1  2  1  0  0  0  0
  2  6  1  0  0  0  0
  2  3  2  0  0  0  0
  3  4  1  0  0  0  0
  4  5  2  0  0  0  0
  4 11  1  0  0  0  0
  5  7  1  0  0  0  0
  6  5  1  0  0  0  0
  7  8  1  0  0  0  0
  8  9  1  0  0  0  0
 10  9  1  0  0  0  0
 10 18  1  0  0  0  0
 11 10  1  0  0  0  0
 12 11  2  0  0  0  0
 12 13  1  0  0  0  0
 13 14  2  0  0  0  0
 13 18  1  0  0  0  0
 14 15  1  0  0  0  0
 15 16  2  0  0  0  0
 16 25  1  0  0  0  0
 17 16  1  0  0  0  0
 18 17  2  0  0  0  0
 19 12  1  0  0  0  0
 20 19  1  0  0  0  0
 21 20  1  0  0  0  0
 22 23  1  0  0  0  0
 22 21  1  0  0  0  0
 23 24  1  0  0  0  0
 24 19  1  0  0  0  0
 25 26  2  0  0  0  0
 25 27  1  0  0  0  0
 27 29  1  0  0  0  0
 28 27  1  0  0  0  0
 29 34  1  0  0  0  0
 29 33  1  0  0  0  0
 29 30  1  0  0  0  0
 30 31  1  0  0  0  0
 32 31  1  0  0  0  0
 33 32  1  0  0  0  0
 34 35  2  0  0  0  0
 36 34  1  0  0  0  0
 37 36  1  0  0  0  0
 38 36  1  0  0  0  0
 38 39  1  0  0  0  0
 40 39  2  0  0  0  0
 41 40  1  0  0  0  0
 42 43  1  0  0  0  0
 42 41  2  0  0  0  0
 43 38  2  0  0  0  0
 44 41  1  0  0  0  0
 44 45  2  0  0  0  0
 46 45  1  0  0  0  0
 46 47  1  0  0  0  0
 48 46  2  0  0  0  0
M  END
>  <minimizedAffinity>
-7.61542082

$$$$

 OpenBabel09122223003D

 48 54  0  0  0  0  0  0  0  0999 V2000
    3.4010  -10.5270    0.7360 C   0  0  0  0  0  1  0  0  0  0  0  0
    3.5580   -9.5470    1.8420 C   0  0  0  0  0  0  0  0  0  0  0  0
    3.4330   -9.8420    3.1170 N   0  0  0  0  0  0  0  0  0  0  0  0
    3.6150   -8.7120    3.8790 C   0  0  0  0  0  0  0  0  0  0  0  0
    3.9460   -7.5690    3.1710 C   0  0  0  0  0  0  0  0  0  0  0  0
    3.9360   -7.9070    1.4940 S   0  0  0  0  0  0  0  0  0  0  0  0
    4.3810   -6.2450    3.7110 C   0  0  0  0  0  2  0  0  0  0  0  0
    3.3340   -5.5390    4.5710 C   0  0  0  0  0  2  0  0  0  0  0  0
    2.4260   -6.4370    5.4090 C   0  0  0  0  0  2  0  0  0  0  0  0
    3.0830   -7.5630    6.0550 N   0  0  0  0  0  0  0  0  0  0  0  0
    3.4900   -8.6910    5.3710 C   0  0  0  0  0  0  0  0  0  0  0  0
    3.7090   -9.7030    6.2970 C   0  0  0  0  0  0  0  0  0  0  0  0
    3.5350   -9.0970    7.5980 C   0  0  0  0  0  0  0  0  0  0  0  0
    3.6640   -9.5720    8.9250 C   0  0  0  0  0  3  0  0  0  0  0  0
    3.4170   -8.7200   10.0110 C   0  0  0  0  0  3  0  0  0  0  0  0
    3.0310   -7.3970    9.7970 C   0  0  0  0  0  0  0  0  0  0  0  0
    2.9150   -6.8990    8.4900 C   0  0  0  0  0  3  0  0  0  0  0  0
    3.1660   -7.7650    7.4120 C   0  0  0  0  0  0  0  0  0  0  0  0
    4.1130  -11.1480    6.0830 C   0  0  0  0  0  3  0  0  0  0  0  0
    5.6250  -11.3700    6.2560 C   0  0  0  0  0  2  0  0  0  0  0  0
    6.0200  -12.8260    6.0140 C   0  0  0  0  0  2  0  0  0  0  0  0
    5.1910  -13.7840    6.8630 C   0  0  0  0  0  2  0  0  0  0  0  0
    3.6970  -13.5930    6.6200 C   0  0  0  0  0  2  0  0  0  0  0  0
    3.2650  -12.1510    6.8810 C   0  0  0  0  0  2  0  0  0  0  0  0
    2.7210   -6.4540   10.9130 C   0  0  0  0  0  0  0  0  0  0  0  0
    3.1570   -6.6900   12.0340 O   0  0  0  0  0  0  0  0  0  0  0  0
    1.9970   -5.3330   10.5880 N   0  0  0  0  0  0  0  0  0  0  0  0
    1.7490   -5.1710    9.6150 H   0  0  0  0  0  0  0  0  0  0  0  0
    1.7040   -4.1640   11.4720 C   0  0  0  0  0  0  0  0  0  0  0  0
    2.9160   -3.8110   12.3460 C   0  0  0  0  0  2  0  0  0  0  0  0
    3.3490   -2.4010   11.9530 C   0  0  0  0  0  2  0  0  0  0  0  0
    2.6400   -2.0670   10.6500 C   0  0  0  0  0  2  0  0  0  0  0  0
    1.3960   -2.9460   10.5950 C   0  0  0  0  0  2  0  0  0  0  0  0
    0.4570   -4.6640   12.2760 C   0  0  0  0  0  0  0  0  0  0  0  0
   -0.2540   -5.5540   11.7660 O   0  0  0  0  0  0  0  0  0  0  0  0
    0.0700   -4.2810   13.5200 N   0  0  0  0  0  0  0  0  0  0  0  0
   -0.6040   -4.9490   13.8790 H   0  0  0  0  0  0  0  0  0  0  0  0
    0.3620   -3.2340   14.4050 C   0  0  0  0  0  0  0  0  0  0  0  0
    0.8760   -3.3890   15.6840 C   0  0  0  0  0  3  0  0  0  0  0  0
    1.1870   -2.2740   16.4760 C   0  0  0  0  0  3  0  0  0  0  0  0
    0.9870   -0.9740   16.0050 C   0  0  0  0  0  0  0  0  0  0  0  0
    0.5070   -0.8180   14.7030 C   0  0  0  0  0  3  0  0  0  0  0  0
    0.2090   -1.9330   13.9100 C   0  0  0  0  0  3  0  0  0  0  0  0
    1.3280    0.2190   16.7920 C   0  0  0  0  0  3  0  0  0  0  0  0
    2.1880    0.2540   17.8220 C   0  0  0  0  0  3  0  0  0  0  0  0
    2.4980    1.5400   18.5890 C   0  0  0  0  0  0  0  0  0  0  0  0
    1.4670    2.1690   18.9610 O   0  0  0  0  0  1  0  0  0  0  0  0
    3.7180    1.8150   18.7590 O   0  0  0  0  0  0  0  0  0  0  0  0
  1  2  1  0  0  0  0
  2  3  2  0  0  0  0
  3  4  1  0  0  0  0
  4 11  1  0  0  0  0
  5  7  1  0  0  0  0
  5  4  2  0  0  0  0
  6  2  1  0  0  0  0
  6  5  1  0  0  0  0
  7  8  1  0  0  0  0
  8  9  1  0  0  0  0
  9 10  1  0  0  0  0
 10 18  1  0  0  0  0
 11 10  1  0  0  0  0
 11 12  2  0  0  0  0
 12 13  1  0  0  0  0
 13 14  1  0  0  0  0
 14 15  2  0  0  0  0
 16 15  1  0  0  0  0
 16 25  1  0  0  0  0
 17 16  2  0  0  0  0
 18 13  2  0  0  0  0
 18 17  1  0  0  0  0
 19 20  1  0  0  0  0
 19 12  1  0  0  0  0
 19 24  1  0  0  0  0
 21 20  1  0  0  0  0
 21 22  1  0  0  0  0
 23 22  1  0  0  0  0
 23 24  1  0  0  0  0
 25 26  2  0  0  0  0
 27 25  1  0  0  0  0
 27 29  1  0  0  0  0
 28 27  1  0  0  0  0
 29 34  1  0  0  0  0
 29 30  1  0  0  0  0
 31 30  1  0  0  0  0
 32 31  1  0  0  0  0
 33 32  1  0  0  0  0
 33 29  1  0  0  0  0
 34 36  1  0  0  0  0
 35 34  2  0  0  0  0
 36 37  1  0  0  0  0
 36 38  1  0  0  0  0
 38 39  1  0  0  0  0
 39 40  2  0  0  0  0
 41 40  1  0  0  0  0
 41 44  1  0  0  0  0
 42 41  2  0  0  0  0
 43 38  2  0  0  0  0
 43 42  1  0  0  0  0
 44 45  2  0  0  0  0
 45 46  1  0  0  0  0
 46 48  2  0  0  0  0
 46 47  1  0  0  0  0
M  END
>  <minimizedAffinity>
-7.57076931

$$$$

 OpenBabel09122223003D

 48 54  0  0  0  0  0  0  0  0999 V2000
    3.5510  -14.1140   15.8730 C   0  0  0  0  0  1  0  0  0  0  0  0
    2.8160  -12.8570   16.1730 C   0  0  0  0  0  0  0  0  0  0  0  0
    2.8670  -11.7730   15.4310 N   0  0  0  0  0  0  0  0  0  0  0  0
    2.0960  -10.7840   15.9940 C   0  0  0  0  0  0  0  0  0  0  0  0
    1.4050  -11.1510   17.1370 C   0  0  0  0  0  0  0  0  0  0  0  0
    1.8120  -12.7560   17.5640 S   0  0  0  0  0  0  0  0  0  0  0  0
    0.3580  -10.3760   17.8690 C   0  0  0  0  0  2  0  0  0  0  0  0
    0.8470   -9.0540   18.4580 C   0  0  0  0  0  2  0  0  0  0  0  0
    1.9220   -8.3130   17.6660 C   0  0  0  0  0  2  0  0  0  0  0  0
    1.7380   -8.3020   16.2220 N   0  0  0  0  0  0  0  0  0  0  0  0
    1.9750   -9.4040   15.4240 C   0  0  0  0  0  0  0  0  0  0  0  0
    2.0880   -8.9710   14.1100 C   0  0  0  0  0  0  0  0  0  0  0  0
    1.7820   -7.5580   14.1290 C   0  0  0  0  0  0  0  0  0  0  0  0
    1.6780   -6.5640   13.1260 C   0  0  0  0  0  3  0  0  0  0  0  0
    1.3620   -5.2410   13.4670 C   0  0  0  0  0  3  0  0  0  0  0  0
    1.1540   -4.8860   14.8000 C   0  0  0  0  0  0  0  0  0  0  0  0
    1.2320   -5.8580   15.8090 C   0  0  0  0  0  3  0  0  0  0  0  0
    1.5510   -7.1800   15.4520 C   0  0  0  0  0  0  0  0  0  0  0  0
    2.3970   -9.7530   12.8500 C   0  0  0  0  0  3  0  0  0  0  0  0
    1.2500   -9.7020   11.8270 C   0  0  0  0  0  2  0  0  0  0  0  0
    1.5660  -10.5140   10.5730 C   0  0  0  0  0  2  0  0  0  0  0  0
    2.9060  -10.1150    9.9640 C   0  0  0  0  0  2  0  0  0  0  0  0
    4.0390  -10.2430   10.9770 C   0  0  0  0  0  2  0  0  0  0  0  0
    3.7640   -9.4170   12.2340 C   0  0  0  0  0  2  0  0  0  0  0  0
    0.8470   -3.4880   15.2260 C   0  0  0  0  0  0  0  0  0  0  0  0
   -0.0910   -2.8960   14.7060 O   0  0  0  0  0  0  0  0  0  0  0  0
    1.6240   -2.9680   16.2330 N   0  0  0  0  0  0  0  0  0  0  0  0
    2.3270   -3.5590   16.6700 H   0  0  0  0  0  0  0  0  0  0  0  0
    1.4170   -1.6730   16.9500 C   0  0  0  0  0  0  0  0  0  0  0  0
    0.2480   -0.8830   16.3440 C   0  0  0  0  0  2  0  0  0  0  0  0
   -0.8090   -0.7500   17.4370 C   0  0  0  0  0  2  0  0  0  0  0  0
   -0.4330   -1.7280   18.5400 C   0  0  0  0  0  2  0  0  0  0  0  0
    1.0670   -1.9680   18.4120 C   0  0  0  0  0  2  0  0  0  0  0  0
    2.8130   -0.9810   16.7870 C   0  0  0  0  0  0  0  0  0  0  0  0
    3.2760   -0.3550   17.7620 O   0  0  0  0  0  0  0  0  0  0  0  0
    3.6330   -1.0250   15.7070 N   0  0  0  0  0  0  0  0  0  0  0  0
    4.5600   -0.7140   15.9790 H   0  0  0  0  0  0  0  0  0  0  0  0
    3.5290   -1.3850   14.3560 C   0  0  0  0  0  0  0  0  0  0  0  0
    4.1760   -2.4590   13.7620 C   0  0  0  0  0  3  0  0  0  0  0  0
    3.9640   -2.7710   12.4120 C   0  0  0  0  0  3  0  0  0  0  0  0
    3.0990   -2.0120   11.6210 C   0  0  0  0  0  0  0  0  0  0  0  0
    2.4170   -0.9550   12.2280 C   0  0  0  0  0  3  0  0  0  0  0  0
    2.6210   -0.6530   13.5810 C   0  0  0  0  0  3  0  0  0  0  0  0
    2.8270   -2.3250   10.2110 C   0  0  0  0  0  3  0  0  0  0  0  0
    2.6200   -1.4240    9.2380 C   0  0  0  0  0  3  0  0  0  0  0  0
    2.3500   -1.8280    7.7880 C   0  0  0  0  0  0  0  0  0  0  0  0
    2.5710   -3.0500    7.5540 O   0  0  0  0  0  1  0  0  0  0  0  0
    1.9470   -0.9160    7.0150 O   0  0  0  0  0  0  0  0  0  0  0  0
  1  2  1  0  0  0  0
  2  6  1  0  0  0  0
  3  4  1  0  0  0  0
  3  2  2  0  0  0  0
  4  5  2  0  0  0  0
  5  6  1  0  0  0  0
  5  7  1  0  0  0  0
  7  8  1  0  0  0  0
  9  8  1  0  0  0  0
 10  9  1  0  0  0  0
 11  4  1  0  0  0  0
 11 10  1  0  0  0  0
 12 13  1  0  0  0  0
 12 11  2  0  0  0  0
 13 18  1  0  0  0  0
 14 15  1  0  0  0  0
 14 13  2  0  0  0  0
 15 16  2  0  0  0  0
 16 25  1  0  0  0  0
 16 17  1  0  0  0  0
 18 17  2  0  0  0  0
 18 10  1  0  0  0  0
 19 12  1  0  0  0  0
 20 19  1  0  0  0  0
 21 20  1  0  0  0  0
 22 21  1  0  0  0  0
 22 23  1  0  0  0  0
 23 24  1  0  0  0  0
 24 19  1  0  0  0  0
 25 27  1  0  0  0  0
 26 25  2  0  0  0  0
 27 28  1  0  0  0  0
 27 29  1  0  0  0  0
 29 33  1  0  0  0  0
 30 29  1  0  0  0  0
 30 31  1  0  0  0  0
 31 32  1  0  0  0  0
 33 32  1  0  0  0  0
 34 29  1  0  0  0  0
 34 35  2  0  0  0  0
 36 37  1  0  0  0  0
 36 34  1  0  0  0  0
 38 36  1  0  0  0  0
 39 38  1  0  0  0  0
 40 39  2  0  0  0  0
 41 42  2  0  0  0  0
 41 40  1  0  0  0  0
 42 43  1  0  0  0  0
 43 38  2  0  0  0  0
 44 41  1  0  0  0  0
 45 44  2  0  0  0  0
 46 45  1  0  0  0  0
 47 46  1  0  0  0  0
 48 46  2  0  0  0  0
M  END
>  <minimizedAffinity>
-7.49532032

$$$$
