REMARK  Name = 
REMARK  7 active torsions:
REMARK  status: ('A' for Active; 'I' for Inactive)
REMARK    1  A    between atoms: C_2  and  C_4
REMARK    2  A    between atoms: C_7  and  C_8
REMARK    3  A    between atoms: C_8  and  O_9
REMARK    4  A    between atoms: O_9  and  C_10
REMARK    5  A    between atoms: C_13  and  C_14
REMARK    6  A    between atoms: C_18  and  C_19
REMARK    7  A    between atoms: N_25  and  C_26
REMARK                            x       y       z     vdW  Elec       q    Type
REMARK                         _______ _______ _______ _____ _____    ______ ____
ROOT
ATOM      1  C   UNL     1       6.646  -0.701   3.268  0.00  0.00    +0.121 A 
ATOM      2  C   UNL     1       7.915  -1.232   3.023  0.00  0.00    +0.046 A 
ATOM      3  C   UNL     1       8.144  -2.608   3.126  0.00  0.00    +0.015 A 
ATOM      4  C   UNL     1       7.102  -3.468   3.486  0.00  0.00    +0.018 A 
ATOM      5  C   UNL     1       5.819  -2.939   3.674  0.00  0.00    +0.015 A 
ATOM      6  C   UNL     1       5.590  -1.562   3.564  0.00  0.00    +0.046 A 
ENDROOT
BRANCH   4   7
ATOM      7  C   UNL     1       7.321  -4.905   3.612  0.00  0.00    +0.142 A 
ATOM      8  N   UNL     1       6.887  -5.775   2.719  0.00  0.00    -0.228 NA
ATOM      9  C   UNL     1       7.299  -7.012   3.141  0.00  0.00    +0.090 A 
ATOM     10  C   UNL     1       7.126  -8.272   2.544  0.00  0.00    +0.039 A 
ATOM     11  C   UNL     1       7.653  -9.422   3.168  0.00  0.00    -0.001 A 
ATOM     12  C   UNL     1       8.341  -9.276   4.385  0.00  0.00    +0.012 A 
ATOM     13  C   UNL     1       8.522  -8.029   4.995  0.00  0.00    +0.028 A 
ATOM     14  C   UNL     1       7.985  -6.911   4.345  0.00  0.00    +0.069 A 
ATOM     15  N   UNL     1       7.969  -5.556   4.647  0.00  0.00    -0.320 N 
BRANCH  15  16
ATOM     16  C   UNL     1       8.568  -5.033   5.856  0.00  0.00    +0.089 C 
ATOM     17  C   UNL     1      10.058  -4.712   5.717  0.00  0.00    +0.025 C 
ATOM     18  C   UNL     1      10.394  -3.833   6.924  0.00  0.00    +0.002 C 
ATOM     19  C   UNL     1       9.062  -3.473   7.582  0.00  0.00    +0.002 C 
ATOM     20  C   UNL     1       8.004  -3.780   6.528  0.00  0.00    +0.025 C 
ENDBRANCH  15  16
BRANCH  11  21
ATOM     21  C   UNL     1       7.488 -10.793   2.541  0.00  0.00    +0.072 C 
ATOM     22  O   UNL     1       6.873 -10.861   1.431  0.00  0.00    -0.545 OA
ATOM     23  O   UNL     1       7.983 -11.781   3.174  0.00  0.00    -0.545 OA
ENDBRANCH  11  21
ENDBRANCH   4   7
BRANCH   1  24
ATOM     24  O   UNL     1       6.555   0.658   3.148  0.00  0.00    -0.487 OA
BRANCH  24  25
ATOM     25  C   UNL     1       5.489   1.312   3.846  0.00  0.00    +0.264 C 
BRANCH  25  29
ATOM     26  C   UNL     1       2.126   2.504   1.369  0.00  0.00    -0.003 A 
ATOM     27  C   UNL     1       3.433   2.518   0.860  0.00  0.00    +0.010 A 
ATOM     28  C   UNL     1       4.518   2.108   1.643  0.00  0.00    +0.007 A 
ATOM     29  C   UNL     1       4.322   1.663   2.957  0.00  0.00    -0.010 A 
ATOM     30  C   UNL     1       3.017   1.639   3.469  0.00  0.00    +0.007 A 
ATOM     31  C   UNL     1       1.935   2.048   2.682  0.00  0.00    +0.010 A 
BRANCH  26  33
ATOM     32  O   UNL     1      -0.199   2.940   1.068  0.00  0.00    -0.545 OA
ATOM     33  C   UNL     1       0.954   2.985   0.532  0.00  0.00    +0.072 C 
ATOM     34  O   UNL     1       1.210   3.416  -0.637  0.00  0.00    -0.545 OA
ENDBRANCH  26  33
ENDBRANCH  25  29
ENDBRANCH  24  25
ENDBRANCH   1  24
TORSDOF 7
