
 OpenBabel09132204463D

 34 38  0  0  0  0  0  0  0  0999 V2000
    8.1670   -4.8890   -0.6220 C   0  0  0  0  0  0  0  0  0  0  0  0
    8.3620   -5.4830    0.6280 C   0  0  0  0  0  3  0  0  0  0  0  0
    7.3760   -6.2990    1.1910 C   0  0  0  0  0  3  0  0  0  0  0  0
    6.1760   -6.5230    0.5090 C   0  0  0  0  0  0  0  0  0  0  0  0
    6.0090   -5.9730   -0.7690 C   0  0  0  0  0  3  0  0  0  0  0  0
    7.0000   -5.1620   -1.3330 C   0  0  0  0  0  3  0  0  0  0  0  0
    5.1280   -7.3600    1.0830 C   0  0  0  0  0  0  0  0  0  0  0  0
    4.6440   -8.4220    0.4660 N   0  0  0  0  0  0  0  0  0  0  0  0
    3.7120   -8.9750    1.3050 C   0  0  0  0  0  0  0  0  0  0  0  0
    2.9270  -10.1290    1.1440 C   0  0  0  0  0  3  0  0  0  0  0  0
    2.0290  -10.5130    2.1620 C   0  0  0  0  0  0  0  0  0  0  0  0
    1.9400   -9.7210    3.3200 C   0  0  0  0  0  3  0  0  0  0  0  0
    2.7140   -8.5680    3.4970 C   0  0  0  0  0  3  0  0  0  0  0  0
    3.5940   -8.2200    2.4650 C   0  0  0  0  0  0  0  0  0  0  0  0
    4.4900   -7.1730    2.2960 N   0  0  0  0  0  0  0  0  0  0  0  0
    4.6500   -6.1340    3.2900 C   0  0  0  0  0  3  0  0  0  0  0  0
    4.3140   -4.7320    2.7770 C   0  0  0  0  0  2  0  0  0  0  0  0
    4.1630   -3.8690    4.0320 C   0  0  0  0  0  2  0  0  0  0  0  0
    4.1730   -4.8290    5.2210 C   0  0  0  0  0  2  0  0  0  0  0  0
    3.9010   -6.2050    4.6220 C   0  0  0  0  0  2  0  0  0  0  0  0
    1.1750  -11.7580    2.0180 C   0  0  0  0  0  0  0  0  0  0  0  0
    0.1830  -11.8840    2.8020 O   0  0  0  0  0  1  0  0  0  0  0  0
    1.5140  -12.5900    1.1150 O   0  0  0  0  0  0  0  0  0  0  0  0
    9.1990   -4.1040   -1.0560 O   0  0  0  0  0  0  0  0  0  0  0  0
    9.8810   -3.3100   -0.0770 C   0  0  0  0  0  2  0  0  0  0  0  0
   11.5610    0.4290   -1.5130 C   0  0  0  0  0  0  0  0  0  0  0  0
   12.0740   -0.8020   -1.9470 C   0  0  0  0  0  3  0  0  0  0  0  0
   11.5190   -2.0110   -1.5110 C   0  0  0  0  0  3  0  0  0  0  0  0
   10.4270   -2.0190   -0.6340 C   0  0  0  0  0  0  0  0  0  0  0  0
    9.9040   -0.7920   -0.2030 C   0  0  0  0  0  3  0  0  0  0  0  0
   10.4610    0.4140   -0.6420 C   0  0  0  0  0  3  0  0  0  0  0  0
   12.1280    2.7160   -1.1430 O   0  0  0  0  0  1  0  0  0  0  0  0
   12.1880    1.7390   -1.9560 C   0  0  0  0  0  0  0  0  0  0  0  0
   12.7440    1.7620   -3.1000 O   0  0  0  0  0  0  0  0  0  0  0  0
  1  2  1  0  0  0  0
  2  3  2  0  0  0  0
  4  7  1  0  0  0  0
  4  3  1  0  0  0  0
  5  4  2  0  0  0  0
  6  5  1  0  0  0  0
  6  1  2  0  0  0  0
  7 15  1  0  0  0  0
  8  7  2  0  0  0  0
  8  9  1  0  0  0  0
  9 14  1  0  0  0  0
 10  9  2  0  0  0  0
 10 11  1  0  0  0  0
 11 12  2  0  0  0  0
 12 13  1  0  0  0  0
 14 13  2  0  0  0  0
 15 14  1  0  0  0  0
 15 16  1  0  0  0  0
 16 20  1  0  0  0  0
 17 16  1  0  0  0  0
 17 18  1  0  0  0  0
 18 19  1  0  0  0  0
 20 19  1  0  0  0  0
 21 11  1  0  0  0  0
 21 22  1  0  0  0  0
 23 21  2  0  0  0  0
 24  1  1  0  0  0  0
 24 25  1  0  0  0  0
 26 31  1  0  0  0  0
 27 26  2  0  0  0  0
 27 28  1  0  0  0  0
 28 29  2  0  0  0  0
 29 30  1  0  0  0  0
 29 25  1  0  0  0  0
 31 30  2  0  0  0  0
 33 26  1  0  0  0  0
 33 32  1  0  0  0  0
 34 33  2  0  0  0  0
M  END
>  <minimizedAffinity>
-9.54463196

$$$$
