
 OpenBabel09132204463D

 34 38  0  0  0  0  0  0  0  0999 V2000
    4.2130   -5.0490    3.0750 C   0  0  0  0  0  0  0  0  0  0  0  0
    3.6070   -5.9590    3.9440 C   0  0  0  0  0  3  0  0  0  0  0  0
    3.5420   -7.3190    3.6220 C   0  0  0  0  0  3  0  0  0  0  0  0
    4.0780   -7.7800    2.4160 C   0  0  0  0  0  0  0  0  0  0  0  0
    4.7360   -6.8750    1.5740 C   0  0  0  0  0  3  0  0  0  0  0  0
    4.8050   -5.5150    1.9010 C   0  0  0  0  0  3  0  0  0  0  0  0
    4.0100   -9.1920    2.0530 C   0  0  0  0  0  0  0  0  0  0  0  0
    3.7530   -9.6030    0.8250 N   0  0  0  0  0  0  0  0  0  0  0  0
    3.8020  -10.9720    0.8480 C   0  0  0  0  0  0  0  0  0  0  0  0
    3.6310  -11.8980   -0.1940 C   0  0  0  0  0  3  0  0  0  0  0  0
    3.7360  -13.2800    0.0710 C   0  0  0  0  0  0  0  0  0  0  0  0
    4.0090  -13.6970    1.3850 C   0  0  0  0  0  3  0  0  0  0  0  0
    4.1820  -12.7890    2.4360 C   0  0  0  0  0  3  0  0  0  0  0  0
    4.0700  -11.4260    2.1340 C   0  0  0  0  0  0  0  0  0  0  0  0
    4.1760  -10.2730    2.9000 N   0  0  0  0  0  0  0  0  0  0  0  0
    4.4290  -10.3200    4.3240 C   0  0  0  0  0  3  0  0  0  0  0  0
    3.2130  -10.7400    5.1530 C   0  0  0  0  0  2  0  0  0  0  0  0
    3.7720  -11.1030    6.5310 C   0  0  0  0  0  2  0  0  0  0  0  0
    5.2940  -11.1200    6.3900 C   0  0  0  0  0  2  0  0  0  0  0  0
    5.5520  -11.1910    4.8890 C   0  0  0  0  0  2  0  0  0  0  0  0
    3.5640  -14.3010   -1.0370 C   0  0  0  0  0  0  0  0  0  0  0  0
    4.3030  -15.3340   -1.0040 O   0  0  0  0  0  1  0  0  0  0  0  0
    2.6840  -14.0490   -1.9230 O   0  0  0  0  0  0  0  0  0  0  0  0
    4.2000   -3.7490    3.4970 O   0  0  0  0  0  0  0  0  0  0  0  0
    2.9890   -3.2580    4.0840 C   0  0  0  0  0  2  0  0  0  0  0  0
    3.5510   -1.2090    7.8720 C   0  0  0  0  0  0  0  0  0  0  0  0
    4.5980   -1.9350    7.2870 C   0  0  0  0  0  3  0  0  0  0  0  0
    4.4330   -2.5740    6.0530 C   0  0  0  0  0  3  0  0  0  0  0  0
    3.2150   -2.4950    5.3650 C   0  0  0  0  0  0  0  0  0  0  0  0
    2.1670   -1.7630    5.9410 C   0  0  0  0  0  3  0  0  0  0  0  0
    2.3370   -1.1250    7.1740 C   0  0  0  0  0  3  0  0  0  0  0  0
    4.8710   -0.0940    9.5150 O   0  0  0  0  0  0  0  0  0  0  0  0
    3.7180   -0.5480    9.2290 C   0  0  0  0  0  0  0  0  0  0  0  0
    2.6900   -0.4780    9.9750 O   0  0  0  0  0  1  0  0  0  0  0  0
  1 24  1  0  0  0  0
  1  2  1  0  0  0  0
  3  2  2  0  0  0  0
  4  3  1  0  0  0  0
  5  6  1  0  0  0  0
  5  4  2  0  0  0  0
  6  1  2  0  0  0  0
  7  4  1  0  0  0  0
  7 15  1  0  0  0  0
  8  9  1  0  0  0  0
  8  7  2  0  0  0  0
  9 14  1  0  0  0  0
 10 11  1  0  0  0  0
 10  9  2  0  0  0  0
 11 12  2  0  0  0  0
 12 13  1  0  0  0  0
 14 13  2  0  0  0  0
 14 15  1  0  0  0  0
 15 16  1  0  0  0  0
 16 20  1  0  0  0  0
 16 17  1  0  0  0  0
 17 18  1  0  0  0  0
 19 18  1  0  0  0  0
 20 19  1  0  0  0  0
 21 22  1  0  0  0  0
 21 11  1  0  0  0  0
 23 21  2  0  0  0  0
 24 25  1  0  0  0  0
 25 29  1  0  0  0  0
 26 33  1  0  0  0  0
 27 26  1  0  0  0  0
 28 27  2  0  0  0  0
 29 30  2  0  0  0  0
 29 28  1  0  0  0  0
 30 31  1  0  0  0  0
 31 26  2  0  0  0  0
 33 32  2  0  0  0  0
 33 34  1  0  0  0  0
M  END
>  <minimizedAffinity>
-8.02849674

$$$$
