
 OpenBabel09132204463D

 34 38  0  0  0  0  0  0  0  0999 V2000
    2.4910   -9.4880    2.4890 C   0  0  0  0  0  0  0  0  0  0  0  0
    2.6830   -8.8960    1.2380 C   0  0  0  0  0  3  0  0  0  0  0  0
    3.6920   -7.9470    1.0450 C   0  0  0  0  0  3  0  0  0  0  0  0
    4.5170   -7.5730    2.1110 C   0  0  0  0  0  0  0  0  0  0  0  0
    4.3590   -8.2110    3.3480 C   0  0  0  0  0  3  0  0  0  0  0  0
    3.3520   -9.1650    3.5370 C   0  0  0  0  0  3  0  0  0  0  0  0
    5.5670   -6.5760    1.9360 C   0  0  0  0  0  0  0  0  0  0  0  0
    6.5840   -6.7460    1.1120 N   0  0  0  0  0  0  0  0  0  0  0  0
    7.3430   -5.6070    1.1810 C   0  0  0  0  0  0  0  0  0  0  0  0
    8.5140   -5.2610    0.4870 C   0  0  0  0  0  3  0  0  0  0  0  0
    9.1240   -4.0100    0.7200 C   0  0  0  0  0  0  0  0  0  0  0  0
    8.5390   -3.1360    1.6530 C   0  0  0  0  0  3  0  0  0  0  0  0
    7.3730   -3.4650    2.3540 C   0  0  0  0  0  3  0  0  0  0  0  0
    6.7970   -4.7140    2.0950 C   0  0  0  0  0  0  0  0  0  0  0  0
    5.6720   -5.3610    2.5900 N   0  0  0  0  0  0  0  0  0  0  0  0
    4.8280   -4.7630    3.6020 C   0  0  0  0  0  3  0  0  0  0  0  0
    5.5960   -4.2550    4.8240 C   0  0  0  0  0  2  0  0  0  0  0  0
    4.6170   -3.3380    5.5620 C   0  0  0  0  0  2  0  0  0  0  0  0
    3.4180   -3.1500    4.6330 C   0  0  0  0  0  2  0  0  0  0  0  0
    3.9070   -3.5910    3.2590 C   0  0  0  0  0  2  0  0  0  0  0  0
   10.3840   -3.6080   -0.0210 C   0  0  0  0  0  0  0  0  0  0  0  0
   10.4030   -3.7730   -1.2810 O   0  0  0  0  0  0  0  0  0  0  0  0
   11.3360   -3.1280    0.6760 O   0  0  0  0  0  1  0  0  0  0  0  0
    1.4650  -10.3890    2.5510 O   0  0  0  0  0  0  0  0  0  0  0  0
    0.9920  -10.7620    3.8510 C   0  0  0  0  0  2  0  0  0  0  0  0
   -2.4290   -8.5370    5.3370 C   0  0  0  0  0  0  0  0  0  0  0  0
   -1.1370   -7.9960    5.4040 C   0  0  0  0  0  3  0  0  0  0  0  0
   -0.0340   -8.6950    4.9010 C   0  0  0  0  0  3  0  0  0  0  0  0
   -0.1960   -9.9540    4.3070 C   0  0  0  0  0  0  0  0  0  0  0  0
   -1.4870  -10.4970    4.2300 C   0  0  0  0  0  3  0  0  0  0  0  0
   -2.5870   -9.7940    4.7330 C   0  0  0  0  0  3  0  0  0  0  0  0
   -3.8880   -6.6530    5.4250 O   0  0  0  0  0  0  0  0  0  0  0  0
   -3.6210   -7.7960    5.9170 C   0  0  0  0  0  0  0  0  0  0  0  0
   -4.2770   -8.3760    6.8380 O   0  0  0  0  0  1  0  0  0  0  0  0
  1 24  1  0  0  0  0
  1  6  1  0  0  0  0
  2  1  2  0  0  0  0
  3  2  1  0  0  0  0
  3  4  2  0  0  0  0
  4  5  1  0  0  0  0
  5  6  2  0  0  0  0
  7  4  1  0  0  0  0
  7 15  1  0  0  0  0
  8  9  1  0  0  0  0
  8  7  2  0  0  0  0
  9 14  1  0  0  0  0
 10 11  1  0  0  0  0
 10  9  2  0  0  0  0
 11 12  2  0  0  0  0
 12 13  1  0  0  0  0
 14 13  2  0  0  0  0
 14 15  1  0  0  0  0
 15 16  1  0  0  0  0
 16 17  1  0  0  0  0
 17 18  1  0  0  0  0
 19 18  1  0  0  0  0
 20 16  1  0  0  0  0
 20 19  1  0  0  0  0
 21 23  1  0  0  0  0
 21 11  1  0  0  0  0
 22 21  2  0  0  0  0
 24 25  1  0  0  0  0
 25 29  1  0  0  0  0
 26 27  1  0  0  0  0
 26 33  1  0  0  0  0
 28 27  2  0  0  0  0
 29 28  1  0  0  0  0
 30 29  2  0  0  0  0
 30 31  1  0  0  0  0
 31 26  2  0  0  0  0
 32 33  2  0  0  0  0
 33 34  1  0  0  0  0
M  END
>  <minimizedAffinity>
-8.12669182

$$$$
