REMARK  Name = 
REMARK  8 active torsions:
REMARK  status: ('A' for Active; 'I' for Inactive)
REMARK    1  A    between atoms: C_1  and  O_2
REMARK    2  A    between atoms: O_2  and  C_3
REMARK    3  A    between atoms: C_7  and  C_8
REMARK    4  A    between atoms: C_8  and  O_9
REMARK    5  A    between atoms: O_9  and  C_10
REMARK    6  A    between atoms: C_13  and  C_14
REMARK    7  A    between atoms: N_16  and  C_25
REMARK    8  A    between atoms: C_20  and  C_21
REMARK                            x       y       z     vdW  Elec       q    Type
REMARK                         _______ _______ _______ _____ _____    ______ ____
ROOT
ATOM      1  C   UNL     1       3.820  -5.207  -5.522  0.00  0.00    +0.253 C 
ATOM      2  O   UNL     1       4.509  -5.829  -6.336  0.00  0.00    -0.270 OA
ATOM      3  N   UNL     1       2.864  -5.814  -4.682  0.00  0.00    -0.243 N 
ATOM      4  C   UNL     1       1.794  -5.018  -4.234  0.00  0.00    +0.168 A 
ATOM      5  N   UNL     1       1.476  -3.829  -4.697  0.00  0.00    -0.232 NA
ATOM      6  C   UNL     1       0.404  -3.313  -3.988  0.00  0.00    +0.130 A 
ATOM      7  C   UNL     1      -0.100  -4.130  -3.004  0.00  0.00    +0.056 A 
ATOM      8  S   UNL     1       0.779  -5.590  -2.971  0.00  0.00    -0.051 S 
ENDROOT
BRANCH   1  12
ATOM      9  C   UNL     1       4.743  -1.038  -5.147  0.00  0.00    +0.121 A 
ATOM     10  C   UNL     1       4.587  -1.622  -6.407  0.00  0.00    +0.046 A 
ATOM     11  C   UNL     1       4.293  -2.982  -6.526  0.00  0.00    +0.016 A 
ATOM     12  C   UNL     1       4.154  -3.764  -5.376  0.00  0.00    +0.038 A 
ATOM     13  C   UNL     1       4.390  -3.200  -4.117  0.00  0.00    +0.016 A 
ATOM     14  C   UNL     1       4.679  -1.836  -4.004  0.00  0.00    +0.046 A 
BRANCH   9  15
ATOM     15  O   UNL     1       4.942   0.318  -5.160  0.00  0.00    -0.487 OA
BRANCH  15  16
ATOM     16  C   UNL     1       4.559   1.053  -3.988  0.00  0.00    +0.264 C 
BRANCH  16  21
ATOM     17  C   UNL     1       1.304   0.680  -2.037  0.00  0.00    +0.120 A 
ATOM     18  C   UNL     1       0.354   0.732  -3.056  0.00  0.00    +0.045 A 
ATOM     19  C   UNL     1       0.761   0.926  -4.376  0.00  0.00    +0.004 A 
ATOM     20  C   UNL     1       2.117   1.053  -4.681  0.00  0.00    +0.007 A 
ATOM     21  C   UNL     1       3.083   0.984  -3.667  0.00  0.00    -0.007 A 
ATOM     22  C   UNL     1       2.659   0.836  -2.338  0.00  0.00    +0.052 A 
BRANCH  17  24
ATOM     23  C   UNL     1       0.030  -0.519  -0.492  0.00  0.00    +0.277 C 
ATOM     24  O   UNL     1       0.995   0.515  -0.713  0.00  0.00    -0.495 OA
ENDBRANCH  17  24
ENDBRANCH  16  21
ENDBRANCH  15  16
ENDBRANCH   9  15
ENDBRANCH   1  12
BRANCH   3  25
ATOM     25  C   UNL     1       2.912  -7.284  -4.515  0.00  0.00    +0.084 C 
ATOM     26  C   UNL     1       2.445  -8.032  -5.777  0.00  0.00    +0.023 C 
ATOM     27  C   UNL     1       2.458  -9.546  -5.567  0.00  0.00    +0.002 C 
ATOM     28  C   UNL     1       3.822 -10.038  -5.090  0.00  0.00    +0.000 C 
ATOM     29  C   UNL     1       4.276  -9.308  -3.829  0.00  0.00    +0.002 C 
ATOM     30  C   UNL     1       4.284  -7.793  -4.028  0.00  0.00    +0.023 C 
ENDBRANCH   3  25
BRANCH   7  31
ATOM     31  C   UNL     1      -1.224  -3.768  -2.121  0.00  0.00    +0.080 C 
ATOM     32  O   UNL     1      -1.568  -4.614  -1.241  0.00  0.00    -0.544 OA
ATOM     33  O   UNL     1      -1.744  -2.623  -2.305  0.00  0.00    -0.544 OA
ENDBRANCH   7  31
TORSDOF 7
