
 OpenBabel09122222393D

 33 36  0  0  0  0  0  0  0  0999 V2000
    5.6990   -8.6010    2.5740 C   0  0  0  0  0  0  0  0  0  0  0  0
    6.5550   -8.3250    3.4200 O   0  0  0  0  0  0  0  0  0  0  0  0
    5.5220   -7.8780    1.3770 N   0  0  0  0  0  0  0  0  0  0  0  0
    4.2440   -7.9000    0.7890 C   0  0  0  0  0  0  0  0  0  0  0  0
    3.1440   -8.3430    1.3580 N   0  0  0  0  0  0  0  0  0  0  0  0
    2.0840   -8.2660    0.4710 C   0  0  0  0  0  3  0  0  0  0  0  0
    2.3850   -7.7400   -0.7630 C   0  0  0  0  0  0  0  0  0  0  0  0
    4.0350   -7.3150   -0.8130 S   0  0  0  0  0  0  0  0  0  0  0  0
    3.5430  -12.2280    3.3310 C   0  0  0  0  0  0  0  0  0  0  0  0
    4.8400  -12.2660    2.8130 C   0  0  0  0  0  3  0  0  0  0  0  0
    5.5380  -11.0830    2.5620 C   0  0  0  0  0  3  0  0  0  0  0  0
    4.9330   -9.8510    2.8290 C   0  0  0  0  0  0  0  0  0  0  0  0
    3.6050   -9.8080    3.2700 C   0  0  0  0  0  3  0  0  0  0  0  0
    2.9140  -10.9970    3.5250 C   0  0  0  0  0  3  0  0  0  0  0  0
    2.9990  -13.4530    3.6160 O   0  0  0  0  0  0  0  0  0  0  0  0
    1.8790  -13.8780    2.8250 C   0  0  0  0  0  2  0  0  0  0  0  0
    3.0140  -13.3970   -0.7830 C   0  0  0  0  0  0  0  0  0  0  0  0
    2.0900  -12.4620   -1.2490 C   0  0  0  0  0  3  0  0  0  0  0  0
    1.0720  -12.0120   -0.4090 C   0  0  0  0  0  3  0  0  0  0  0  0
    0.9850  -12.4830    0.9020 C   0  0  0  0  0  3  0  0  0  0  0  0
    1.9190  -13.4090    1.3890 C   0  0  0  0  0  0  0  0  0  0  0  0
    2.9100  -13.8900    0.5200 C   0  0  0  0  0  3  0  0  0  0  0  0
    5.2610  -14.0250   -0.8210 C   0  0  0  0  0  1  0  0  0  0  0  0
    4.0300  -13.9100   -1.5430 O   0  0  0  0  0  0  0  0  0  0  0  0
    6.6030   -6.9650    0.9440 C   0  0  0  0  0  3  0  0  0  0  0  0
    6.4380   -6.5160   -0.5200 C   0  0  0  0  0  2  0  0  0  0  0  0
    7.5890   -5.6120   -0.9600 C   0  0  0  0  0  2  0  0  0  0  0  0
    7.7650   -4.4230   -0.0200 C   0  0  0  0  0  2  0  0  0  0  0  0
    7.9460   -4.8710    1.4280 C   0  0  0  0  0  2  0  0  0  0  0  0
    6.7940   -5.7620    1.8890 C   0  0  0  0  0  2  0  0  0  0  0  0
    1.4110   -7.5860   -1.8590 C   0  0  0  0  0  0  0  0  0  0  0  0
    1.8590   -7.2250   -2.9890 O   0  0  0  0  0  0  0  0  0  0  0  0
    0.1990   -7.8500   -1.5820 O   0  0  0  0  0  1  0  0  0  0  0  0
  1 12  1  0  0  0  0
  1  2  2  0  0  0  0
  3  1  1  0  0  0  0
  4  5  2  0  0  0  0
  4  3  1  0  0  0  0
  6  5  1  0  0  0  0
  7  6  2  0  0  0  0
  8  7  1  0  0  0  0
  8  4  1  0  0  0  0
  9 14  1  0  0  0  0
  9 15  1  0  0  0  0
 10  9  2  0  0  0  0
 11 10  1  0  0  0  0
 11 12  2  0  0  0  0
 12 13  1  0  0  0  0
 13 14  2  0  0  0  0
 16 15  1  0  0  0  0
 17 22  1  0  0  0  0
 18 17  2  0  0  0  0
 18 19  1  0  0  0  0
 19 20  2  0  0  0  0
 20 21  1  0  0  0  0
 21 16  1  0  0  0  0
 22 21  2  0  0  0  0
 24 23  1  0  0  0  0
 24 17  1  0  0  0  0
 25  3  1  0  0  0  0
 25 30  1  0  0  0  0
 26 25  1  0  0  0  0
 27 26  1  0  0  0  0
 27 28  1  0  0  0  0
 28 29  1  0  0  0  0
 29 30  1  0  0  0  0
 31 33  1  0  0  0  0
 31  7  1  0  0  0  0
 32 31  2  0  0  0  0
M  END
>  <minimizedAffinity>
6.25856209

$$$$
