
 OpenBabel09122222393D

 33 36  0  0  0  0  0  0  0  0999 V2000
    3.3170   -7.1120    3.2330 C   0  0  0  0  0  0  0  0  0  0  0  0
    2.1320   -7.0580    3.5760 O   0  0  0  0  0  0  0  0  0  0  0  0
    4.1080   -5.9740    2.9750 N   0  0  0  0  0  0  0  0  0  0  0  0
    5.1940   -6.1250    2.0930 C   0  0  0  0  0  0  0  0  0  0  0  0
    5.4130   -7.1620    1.3150 N   0  0  0  0  0  0  0  0  0  0  0  0
    6.6020   -6.9970    0.6240 C   0  0  0  0  0  3  0  0  0  0  0  0
    7.2660   -5.8180    0.8680 C   0  0  0  0  0  0  0  0  0  0  0  0
    6.3750   -4.8820    1.9790 S   0  0  0  0  0  0  0  0  0  0  0  0
    5.1000  -11.0100    3.2710 C   0  0  0  0  0  0  0  0  0  0  0  0
    5.8810   -9.8720    3.0550 C   0  0  0  0  0  3  0  0  0  0  0  0
    5.2960   -8.6040    3.0360 C   0  0  0  0  0  3  0  0  0  0  0  0
    3.9190   -8.4730    3.2350 C   0  0  0  0  0  0  0  0  0  0  0  0
    3.1230   -9.6160    3.3700 C   0  0  0  0  0  3  0  0  0  0  0  0
    3.7150  -10.8830    3.3930 C   0  0  0  0  0  3  0  0  0  0  0  0
    5.8010  -12.1850    3.3540 O   0  0  0  0  0  0  0  0  0  0  0  0
    5.1560  -13.3750    2.8760 C   0  0  0  0  0  2  0  0  0  0  0  0
    2.1650  -12.7030    0.6080 C   0  0  0  0  0  0  0  0  0  0  0  0
    2.7160  -12.9040   -0.6570 C   0  0  0  0  0  3  0  0  0  0  0  0
    4.0690  -13.2210   -0.7830 C   0  0  0  0  0  3  0  0  0  0  0  0
    4.8680  -13.3520    0.3540 C   0  0  0  0  0  3  0  0  0  0  0  0
    4.3210  -13.1710    1.6320 C   0  0  0  0  0  0  0  0  0  0  0  0
    2.9710  -12.8060    1.7440 C   0  0  0  0  0  3  0  0  0  0  0  0
    0.5790  -12.0640    2.1960 C   0  0  0  0  0  1  0  0  0  0  0  0
    0.8550  -12.3680    0.8250 O   0  0  0  0  0  0  0  0  0  0  0  0
    3.6210   -4.6600    3.4510 C   0  0  0  0  0  3  0  0  0  0  0  0
    4.5650   -3.5090    3.0590 C   0  0  0  0  0  2  0  0  0  0  0  0
    4.0670   -2.1690    3.6000 C   0  0  0  0  0  2  0  0  0  0  0  0
    2.6270   -1.8890    3.1780 C   0  0  0  0  0  2  0  0  0  0  0  0
    1.6900   -3.0230    3.5830 C   0  0  0  0  0  2  0  0  0  0  0  0
    2.1650   -4.3680    3.0350 C   0  0  0  0  0  2  0  0  0  0  0  0
    8.5560   -5.4510    0.2530 C   0  0  0  0  0  0  0  0  0  0  0  0
    9.0980   -6.3040   -0.5130 O   0  0  0  0  0  0  0  0  0  0  0  0
    9.0080   -4.2960    0.5310 O   0  0  0  0  0  1  0  0  0  0  0  0
  1 12  1  0  0  0  0
  1  2  2  0  0  0  0
  3  1  1  0  0  0  0
  3 25  1  0  0  0  0
  4  3  1  0  0  0  0
  5  4  2  0  0  0  0
  6  7  2  0  0  0  0
  6  5  1  0  0  0  0
  7  8  1  0  0  0  0
  8  4  1  0  0  0  0
  9 15  1  0  0  0  0
  9 14  1  0  0  0  0
 10  9  2  0  0  0  0
 11 10  1  0  0  0  0
 11 12  2  0  0  0  0
 12 13  1  0  0  0  0
 13 14  2  0  0  0  0
 16 15  1  0  0  0  0
 17 24  1  0  0  0  0
 17 22  1  0  0  0  0
 18 17  2  0  0  0  0
 19 18  1  0  0  0  0
 19 20  2  0  0  0  0
 20 21  1  0  0  0  0
 21 22  2  0  0  0  0
 21 16  1  0  0  0  0
 24 23  1  0  0  0  0
 26 25  1  0  0  0  0
 26 27  1  0  0  0  0
 28 29  1  0  0  0  0
 28 27  1  0  0  0  0
 30 25  1  0  0  0  0
 30 29  1  0  0  0  0
 31 33  1  0  0  0  0
 31  7  1  0  0  0  0
 32 31  2  0  0  0  0
M  END
>  <minimizedAffinity>
7.36795378

$$$$
