
 OpenBabel09122222393D

 15 15  0  0  0  0  0  0  0  0999 V2000
   10.3780   -0.0760   -0.6720 C   0  0  0  0  0  0  0  0  0  0  0  0
    9.8190    0.3370    0.4750 C   0  0  0  0  0  3  0  0  0  0  0  0
    9.2940   -0.6630    1.4100 C   0  0  0  0  0  0  0  0  0  0  0  0
    8.7650   -0.3490    2.4780 O   0  0  0  0  0  0  0  0  0  0  0  0
    9.4160   -2.0940    1.0360 C   0  0  0  0  0  0  0  0  0  0  0  0
    9.9930   -2.3880   -0.1360 C   0  0  0  0  0  0  0  0  0  0  0  0
   10.4830   -1.4240   -1.0200 O   0  0  0  0  0  0  0  0  0  0  0  0
   11.1470    0.5820   -2.8410 O   0  0  0  0  0  0  0  0  0  0  0  0
   10.9330    0.9920   -1.6560 C   0  0  0  0  0  0  0  0  0  0  0  0
   11.1290    2.1510   -1.1920 O   0  0  0  0  0  1  0  0  0  0  0  0
   10.1370   -3.8560   -0.5530 C   0  0  0  0  0  0  0  0  0  0  0  0
   11.3130   -4.3310   -0.5020 O   0  0  0  0  0  1  0  0  0  0  0  0
    9.0670   -4.4320   -0.9170 O   0  0  0  0  0  0  0  0  0  0  0  0
    8.9200   -3.0200    1.9360 O   0  0  0  0  0  0  0  0  0  0  0  0
    8.5740   -2.4700    2.6660 H   0  0  0  0  0  0  0  0  0  0  0  0
  1  2  2  0  0  0  0
  2  3  1  0  0  0  0
  3  4  2  0  0  0  0
  5  3  1  0  0  0  0
  5 14  1  0  0  0  0
  6  5  2  0  0  0  0
  7  1  1  0  0  0  0
  7  6  1  0  0  0  0
  8  9  2  0  0  0  0
  9 10  1  0  0  0  0
  9  1  1  0  0  0  0
 11 12  1  0  0  0  0
 11  6  1  0  0  0  0
 13 11  2  0  0  0  0
 14 15  1  0  0  0  0
M  END
>  <minimizedAffinity>
-5.47665739

$$$$
