
 OpenBabel09122222393D

 15 15  0  0  0  0  0  0  0  0999 V2000
   10.0340   -2.3170   -0.1070 C   0  0  0  0  0  0  0  0  0  0  0  0
    9.4050   -1.9570    1.0210 C   0  0  0  0  0  3  0  0  0  0  0  0
    9.2680   -0.5320    1.3340 C   0  0  0  0  0  0  0  0  0  0  0  0
    8.7050   -0.1350    2.3560 O   0  0  0  0  0  0  0  0  0  0  0  0
    9.8330    0.4470    0.3720 C   0  0  0  0  0  0  0  0  0  0  0  0
   10.4400   -0.0290   -0.7230 C   0  0  0  0  0  0  0  0  0  0  0  0
   10.5690   -1.3910   -1.0040 O   0  0  0  0  0  0  0  0  0  0  0  0
   11.3140   -4.3380   -0.1870 O   0  0  0  0  0  1  0  0  0  0  0  0
   10.1730   -3.8320   -0.4300 C   0  0  0  0  0  0  0  0  0  0  0  0
    9.1570   -4.4110   -0.9100 O   0  0  0  0  0  0  0  0  0  0  0  0
   11.0330    0.9540   -1.7380 C   0  0  0  0  0  0  0  0  0  0  0  0
   11.3120    2.1090   -1.2900 O   0  0  0  0  0  1  0  0  0  0  0  0
   11.1670    0.5110   -2.9200 O   0  0  0  0  0  0  0  0  0  0  0  0
    9.6850    1.7870    0.6850 O   0  0  0  0  0  0  0  0  0  0  0  0
    9.2080    1.7750    1.5360 H   0  0  0  0  0  0  0  0  0  0  0  0
  1  2  2  0  0  0  0
  2  3  1  0  0  0  0
  3  4  2  0  0  0  0
  5 14  1  0  0  0  0
  5  3  1  0  0  0  0
  6  5  2  0  0  0  0
  7  6  1  0  0  0  0
  7  1  1  0  0  0  0
  9  8  1  0  0  0  0
  9  1  1  0  0  0  0
 10  9  2  0  0  0  0
 11 12  1  0  0  0  0
 11  6  1  0  0  0  0
 13 11  2  0  0  0  0
 14 15  1  0  0  0  0
M  END
>  <minimizedAffinity>
-5.62672615

$$$$
