
 OpenBabel09122222393D

 15 15  0  0  0  0  0  0  0  0999 V2000
   10.6250   -0.9700   -1.2130 C   0  0  0  0  0  0  0  0  0  0  0  0
   10.9360   -2.2710   -1.3110 C   0  0  0  0  0  3  0  0  0  0  0  0
   10.6740   -3.1520   -0.1690 C   0  0  0  0  0  0  0  0  0  0  0  0
   10.9410   -4.3550   -0.1930 O   0  0  0  0  0  0  0  0  0  0  0  0
   10.0670   -2.5520    1.0450 C   0  0  0  0  0  0  0  0  0  0  0  0
    9.7980   -1.2400    1.0280 C   0  0  0  0  0  0  0  0  0  0  0  0
   10.0600   -0.4110   -0.0650 O   0  0  0  0  0  0  0  0  0  0  0  0
   10.7010   -0.5690   -3.5720 O   0  0  0  0  0  0  0  0  0  0  0  0
   10.9050   -0.0450   -2.4310 C   0  0  0  0  0  0  0  0  0  0  0  0
   11.3150    1.1240   -2.1800 O   0  0  0  0  0  1  0  0  0  0  0  0
    9.1690   -0.5880    2.2650 C   0  0  0  0  0  0  0  0  0  0  0  0
    8.6670    0.5640    2.0860 O   0  0  0  0  0  0  0  0  0  0  0  0
    9.2310   -1.2660    3.3360 O   0  0  0  0  0  1  0  0  0  0  0  0
    9.8230   -3.4040    2.1080 O   0  0  0  0  0  0  0  0  0  0  0  0
   10.1350   -4.2710    1.7860 H   0  0  0  0  0  0  0  0  0  0  0  0
  1  7  1  0  0  0  0
  2  1  2  0  0  0  0
  2  3  1  0  0  0  0
  3  5  1  0  0  0  0
  4  3  2  0  0  0  0
  5 14  1  0  0  0  0
  6  5  2  0  0  0  0
  6 11  1  0  0  0  0
  7  6  1  0  0  0  0
  8  9  2  0  0  0  0
  9 10  1  0  0  0  0
  9  1  1  0  0  0  0
 11 13  1  0  0  0  0
 12 11  2  0  0  0  0
 15 14  1  0  0  0  0
M  END
>  <minimizedAffinity>
-5.38652086

$$$$
