
 OpenBabel09122222393D

 15 15  0  0  0  0  0  0  0  0999 V2000
    9.5610   -0.4950    0.9720 C   0  0  0  0  0  0  0  0  0  0  0  0
   10.1760   -0.9140   -0.1430 C   0  0  0  0  0  3  0  0  0  0  0  0
   10.1970   -2.3490   -0.4440 C   0  0  0  0  0  0  0  0  0  0  0  0
   10.7490   -2.8000   -1.4500 O   0  0  0  0  0  0  0  0  0  0  0  0
    9.5250   -3.2680    0.5070 C   0  0  0  0  0  0  0  0  0  0  0  0
    8.9430   -2.7340    1.5890 C   0  0  0  0  0  0  0  0  0  0  0  0
    8.9360   -1.3650    1.8660 O   0  0  0  0  0  0  0  0  0  0  0  0
   10.2130    1.7560    0.4810 O   0  0  0  0  0  0  0  0  0  0  0  0
    9.5420    1.0290    1.2810 C   0  0  0  0  0  0  0  0  0  0  0  0
    8.8810    1.4010    2.2920 O   0  0  0  0  0  1  0  0  0  0  0  0
    8.2380   -3.6540    2.5910 C   0  0  0  0  0  0  0  0  0  0  0  0
    8.4800   -3.4240    3.8170 O   0  0  0  0  0  1  0  0  0  0  0  0
    7.5010   -4.5560    2.0880 O   0  0  0  0  0  0  0  0  0  0  0  0
    9.5530   -4.6170    0.1990 O   0  0  0  0  0  0  0  0  0  0  0  0
   10.0510   -4.6520   -0.6400 H   0  0  0  0  0  0  0  0  0  0  0  0
  1  9  1  0  0  0  0
  1  7  1  0  0  0  0
  2  1  2  0  0  0  0
  3  2  1  0  0  0  0
  3  5  1  0  0  0  0
  4  3  2  0  0  0  0
  5  6  2  0  0  0  0
  6  7  1  0  0  0  0
  6 11  1  0  0  0  0
  8  9  2  0  0  0  0
  9 10  1  0  0  0  0
 11 12  1  0  0  0  0
 13 11  2  0  0  0  0
 14  5  1  0  0  0  0
 15 14  1  0  0  0  0
M  END
>  <minimizedAffinity>
-5.63910961

$$$$
