
 OpenBabel09122221053D

 15 15  0  0  0  0  0  0  0  0999 V2000
    9.5610   -0.4950    0.9720 C   0  0  0  0  0  0  0  0  0  0  0  0
   10.1760   -0.9140   -0.1430 C   0  0  0  0  0  3  0  0  0  0  0  0
   10.1970   -2.3490   -0.4440 C   0  0  0  0  0  0  0  0  0  0  0  0
   10.7490   -2.8000   -1.4500 O   0  0  0  0  0  0  0  0  0  0  0  0
    9.5250   -3.2680    0.5070 C   0  0  0  0  0  0  0  0  0  0  0  0
    8.9430   -2.7340    1.5890 C   0  0  0  0  0  0  0  0  0  0  0  0
    8.9360   -1.3650    1.8660 O   0  0  0  0  0  0  0  0  0  0  0  0
   10.2130    1.7560    0.4810 O   0  0  0  0  0  0  0  0  0  0  0  0
    9.5420    1.0290    1.2810 C   0  0  0  0  0  0  0  0  0  0  0  0
    8.8810    1.4010    2.2920 O   0  0  0  0  0  1  0  0  0  0  0  0
    8.2380   -3.6540    2.5910 C   0  0  0  0  0  0  0  0  0  0  0  0
    8.4800   -3.4240    3.8170 O   0  0  0  0  0  1  0  0  0  0  0  0
    7.5010   -4.5560    2.0880 O   0  0  0  0  0  0  0  0  0  0  0  0
    9.5530   -4.6170    0.1990 O   0  0  0  0  0  0  0  0  0  0  0  0
   10.0510   -4.6520   -0.6400 H   0  0  0  0  0  0  0  0  0  0  0  0
  1  9  1  0  0  0  0
  1  7  1  0  0  0  0
  2  1  2  0  0  0  0
  3  2  1  0  0  0  0
  3  5  1  0  0  0  0
  4  3  2  0  0  0  0
  5  6  2  0  0  0  0
  6  7  1  0  0  0  0
  6 11  1  0  0  0  0
  8  9  2  0  0  0  0
  9 10  1  0  0  0  0
 11 12  1  0  0  0  0
 13 11  2  0  0  0  0
 14  5  1  0  0  0  0
 15 14  1  0  0  0  0
M  END
>  <minimizedAffinity>
-5.63910961

$$$$

 OpenBabel09122221053D

 15 15  0  0  0  0  0  0  0  0999 V2000
   10.0340   -2.3170   -0.1070 C   0  0  0  0  0  0  0  0  0  0  0  0
    9.4050   -1.9570    1.0210 C   0  0  0  0  0  3  0  0  0  0  0  0
    9.2680   -0.5320    1.3340 C   0  0  0  0  0  0  0  0  0  0  0  0
    8.7050   -0.1350    2.3560 O   0  0  0  0  0  0  0  0  0  0  0  0
    9.8330    0.4470    0.3720 C   0  0  0  0  0  0  0  0  0  0  0  0
   10.4400   -0.0290   -0.7230 C   0  0  0  0  0  0  0  0  0  0  0  0
   10.5690   -1.3910   -1.0040 O   0  0  0  0  0  0  0  0  0  0  0  0
   11.3140   -4.3380   -0.1870 O   0  0  0  0  0  1  0  0  0  0  0  0
   10.1730   -3.8320   -0.4300 C   0  0  0  0  0  0  0  0  0  0  0  0
    9.1570   -4.4110   -0.9100 O   0  0  0  0  0  0  0  0  0  0  0  0
   11.0330    0.9540   -1.7380 C   0  0  0  0  0  0  0  0  0  0  0  0
   11.3120    2.1090   -1.2900 O   0  0  0  0  0  1  0  0  0  0  0  0
   11.1670    0.5110   -2.9200 O   0  0  0  0  0  0  0  0  0  0  0  0
    9.6850    1.7870    0.6850 O   0  0  0  0  0  0  0  0  0  0  0  0
    9.2080    1.7750    1.5360 H   0  0  0  0  0  0  0  0  0  0  0  0
  1  2  2  0  0  0  0
  2  3  1  0  0  0  0
  3  4  2  0  0  0  0
  5 14  1  0  0  0  0
  5  3  1  0  0  0  0
  6  5  2  0  0  0  0
  7  6  1  0  0  0  0
  7  1  1  0  0  0  0
  9  8  1  0  0  0  0
  9  1  1  0  0  0  0
 10  9  2  0  0  0  0
 11 12  1  0  0  0  0
 11  6  1  0  0  0  0
 13 11  2  0  0  0  0
 14 15  1  0  0  0  0
M  END
>  <minimizedAffinity>
-5.62672615

$$$$

 OpenBabel09122221053D

 15 15  0  0  0  0  0  0  0  0999 V2000
    9.4010   -0.7100    1.6690 C   0  0  0  0  0  0  0  0  0  0  0  0
    8.7670   -1.6570    2.3760 C   0  0  0  0  0  3  0  0  0  0  0  0
    8.7610   -3.0330    1.8720 C   0  0  0  0  0  0  0  0  0  0  0  0
    8.1930   -3.9490    2.4710 O   0  0  0  0  0  0  0  0  0  0  0  0
    9.4680   -3.3090    0.5970 C   0  0  0  0  0  0  0  0  0  0  0  0
   10.0660   -2.2830   -0.0230 C   0  0  0  0  0  0  0  0  0  0  0  0
   10.0580   -0.9740    0.4660 O   0  0  0  0  0  0  0  0  0  0  0  0
    9.7880    0.8770    3.4190 O   0  0  0  0  0  1  0  0  0  0  0  0
    9.4030    0.7470    2.2130 C   0  0  0  0  0  0  0  0  0  0  0  0
    9.0170    1.6550    1.4230 O   0  0  0  0  0  0  0  0  0  0  0  0
   10.8070   -2.5320   -1.3410 C   0  0  0  0  0  0  0  0  0  0  0  0
   11.3090   -3.6900   -1.4810 O   0  0  0  0  0  1  0  0  0  0  0  0
   10.8490   -1.5500   -2.1430 O   0  0  0  0  0  0  0  0  0  0  0  0
    9.4540   -4.6160    0.1440 O   0  0  0  0  0  0  0  0  0  0  0  0
    8.9370   -5.0910    0.8230 H   0  0  0  0  0  0  0  0  0  0  0  0
  1  9  1  0  0  0  0
  1  2  2  0  0  0  0
  3  2  1  0  0  0  0
  3  4  2  0  0  0  0
  5  3  1  0  0  0  0
  6  7  1  0  0  0  0
  6  5  2  0  0  0  0
  7  1  1  0  0  0  0
  9  8  1  0  0  0  0
 10  9  2  0  0  0  0
 11  6  1  0  0  0  0
 12 11  1  0  0  0  0
 13 11  2  0  0  0  0
 14  5  1  0  0  0  0
 14 15  1  0  0  0  0
M  END
>  <minimizedAffinity>
-5.58641291

$$$$

 OpenBabel09122221053D

 15 15  0  0  0  0  0  0  0  0999 V2000
    9.6770   -2.6390    0.5350 C   0  0  0  0  0  0  0  0  0  0  0  0
    9.5790   -1.3340    0.2410 C   0  0  0  0  0  3  0  0  0  0  0  0
    9.4620   -0.3670    1.3360 C   0  0  0  0  0  0  0  0  0  0  0  0
    9.3640    0.8450    1.1330 O   0  0  0  0  0  0  0  0  0  0  0  0
    9.4650   -0.8880    2.7260 C   0  0  0  0  0  0  0  0  0  0  0  0
    9.5690   -2.2120    2.8980 C   0  0  0  0  0  0  0  0  0  0  0  0
    9.6730   -3.1230    1.8440 O   0  0  0  0  0  0  0  0  0  0  0  0
   10.9040   -3.6230   -1.2710 O   0  0  0  0  0  0  0  0  0  0  0  0
    9.8030   -3.6570   -0.6340 C   0  0  0  0  0  0  0  0  0  0  0  0
    8.8090   -4.4060   -0.8510 O   0  0  0  0  0  1  0  0  0  0  0  0
    9.5770   -2.7840    4.3190 C   0  0  0  0  0  0  0  0  0  0  0  0
    8.5200   -3.3920    4.6760 O   0  0  0  0  0  0  0  0  0  0  0  0
   10.6330   -2.5760    4.9910 O   0  0  0  0  0  1  0  0  0  0  0  0
    9.3600    0.0440    3.7430 O   0  0  0  0  0  0  0  0  0  0  0  0
    9.3010    0.8960    3.2710 H   0  0  0  0  0  0  0  0  0  0  0  0
  1  7  1  0  0  0  0
  2  1  2  0  0  0  0
  2  3  1  0  0  0  0
  3  5  1  0  0  0  0
  4  3  2  0  0  0  0
  5  6  2  0  0  0  0
  5 14  1  0  0  0  0
  6 11  1  0  0  0  0
  7  6  1  0  0  0  0
  8  9  2  0  0  0  0
  9  1  1  0  0  0  0
 10  9  1  0  0  0  0
 11 12  2  0  0  0  0
 11 13  1  0  0  0  0
 15 14  1  0  0  0  0
M  END
>  <minimizedAffinity>
-5.5860734

$$$$

 OpenBabel09122221053D

 15 15  0  0  0  0  0  0  0  0999 V2000
    9.6550   -1.9930    2.7980 C   0  0  0  0  0  0  0  0  0  0  0  0
    9.3480   -0.6880    2.8350 C   0  0  0  0  0  3  0  0  0  0  0  0
    9.3690    0.0810    1.5880 C   0  0  0  0  0  0  0  0  0  0  0  0
    9.1000    1.2840    1.5540 O   0  0  0  0  0  0  0  0  0  0  0  0
    9.7270   -0.6330    0.3370 C   0  0  0  0  0  0  0  0  0  0  0  0
   10.0150   -1.9380    0.4230 C   0  0  0  0  0  0  0  0  0  0  0  0
    9.9980   -2.6570    1.6200 O   0  0  0  0  0  0  0  0  0  0  0  0
    8.5950   -3.5220    4.3050 O   0  0  0  0  0  0  0  0  0  0  0  0
    9.6280   -2.8000    4.1270 C   0  0  0  0  0  0  0  0  0  0  0  0
   10.6150   -2.6600    4.9030 O   0  0  0  0  0  1  0  0  0  0  0  0
   10.3880   -2.7080   -0.8490 C   0  0  0  0  0  0  0  0  0  0  0  0
   11.0800   -2.0670   -1.6990 O   0  0  0  0  0  0  0  0  0  0  0  0
    9.9520   -3.8980   -0.9210 O   0  0  0  0  0  1  0  0  0  0  0  0
    9.7340    0.1120   -0.8290 O   0  0  0  0  0  0  0  0  0  0  0  0
    9.4840    1.0080   -0.5320 H   0  0  0  0  0  0  0  0  0  0  0  0
  1  2  2  0  0  0  0
  1  9  1  0  0  0  0
  3  2  1  0  0  0  0
  4  3  2  0  0  0  0
  5  6  2  0  0  0  0
  5  3  1  0  0  0  0
  6  7  1  0  0  0  0
  7  1  1  0  0  0  0
  9  8  2  0  0  0  0
  9 10  1  0  0  0  0
 11  6  1  0  0  0  0
 12 11  2  0  0  0  0
 13 11  1  0  0  0  0
 14 15  1  0  0  0  0
 14  5  1  0  0  0  0
M  END
>  <minimizedAffinity>
-5.57857513

$$$$

 OpenBabel09122221053D

 15 15  0  0  0  0  0  0  0  0999 V2000
   10.2180   -2.1560   -0.4470 C   0  0  0  0  0  0  0  0  0  0  0  0
   10.6820   -1.4490   -1.4870 C   0  0  0  0  0  3  0  0  0  0  0  0
   10.6770    0.0150   -1.4100 C   0  0  0  0  0  0  0  0  0  0  0  0
   11.0860    0.7230   -2.3330 O   0  0  0  0  0  0  0  0  0  0  0  0
   10.1580    0.6420   -0.1690 C   0  0  0  0  0  0  0  0  0  0  0  0
    9.7190   -0.1660    0.8050 C   0  0  0  0  0  0  0  0  0  0  0  0
    9.7240   -1.5600    0.7140 O   0  0  0  0  0  0  0  0  0  0  0  0
   11.3140   -4.2670   -0.1760 O   0  0  0  0  0  1  0  0  0  0  0  0
   10.2300   -3.7080   -0.5390 C   0  0  0  0  0  0  0  0  0  0  0  0
    9.1810   -4.2650   -0.9700 O   0  0  0  0  0  0  0  0  0  0  0  0
    9.1780    0.4490    2.1000 C   0  0  0  0  0  0  0  0  0  0  0  0
    8.6230    1.5850    1.9830 O   0  0  0  0  0  0  0  0  0  0  0  0
    9.3560   -0.2390    3.1520 O   0  0  0  0  0  1  0  0  0  0  0  0
   10.1680    2.0250   -0.1160 O   0  0  0  0  0  0  0  0  0  0  0  0
   10.5430    2.2870   -0.9790 H   0  0  0  0  0  0  0  0  0  0  0  0
  1  7  1  0  0  0  0
  2  3  1  0  0  0  0
  2  1  2  0  0  0  0
  3  5  1  0  0  0  0
  4  3  2  0  0  0  0
  5 14  1  0  0  0  0
  5  6  2  0  0  0  0
  6 11  1  0  0  0  0
  7  6  1  0  0  0  0
  9  1  1  0  0  0  0
  9  8  1  0  0  0  0
 10  9  2  0  0  0  0
 11 13  1  0  0  0  0
 12 11  2  0  0  0  0
 15 14  1  0  0  0  0
M  END
>  <minimizedAffinity>
-5.50647354

$$$$

 OpenBabel09122221053D

 15 15  0  0  0  0  0  0  0  0999 V2000
   10.3780   -0.0760   -0.6720 C   0  0  0  0  0  0  0  0  0  0  0  0
    9.8190    0.3370    0.4750 C   0  0  0  0  0  3  0  0  0  0  0  0
    9.2940   -0.6630    1.4100 C   0  0  0  0  0  0  0  0  0  0  0  0
    8.7650   -0.3490    2.4780 O   0  0  0  0  0  0  0  0  0  0  0  0
    9.4160   -2.0940    1.0360 C   0  0  0  0  0  0  0  0  0  0  0  0
    9.9930   -2.3880   -0.1360 C   0  0  0  0  0  0  0  0  0  0  0  0
   10.4830   -1.4240   -1.0200 O   0  0  0  0  0  0  0  0  0  0  0  0
   11.1470    0.5820   -2.8410 O   0  0  0  0  0  0  0  0  0  0  0  0
   10.9330    0.9920   -1.6560 C   0  0  0  0  0  0  0  0  0  0  0  0
   11.1290    2.1510   -1.1920 O   0  0  0  0  0  1  0  0  0  0  0  0
   10.1370   -3.8560   -0.5530 C   0  0  0  0  0  0  0  0  0  0  0  0
   11.3130   -4.3310   -0.5020 O   0  0  0  0  0  1  0  0  0  0  0  0
    9.0670   -4.4320   -0.9170 O   0  0  0  0  0  0  0  0  0  0  0  0
    8.9200   -3.0200    1.9360 O   0  0  0  0  0  0  0  0  0  0  0  0
    8.5740   -2.4700    2.6660 H   0  0  0  0  0  0  0  0  0  0  0  0
  1  2  2  0  0  0  0
  2  3  1  0  0  0  0
  3  4  2  0  0  0  0
  5  3  1  0  0  0  0
  5 14  1  0  0  0  0
  6  5  2  0  0  0  0
  7  1  1  0  0  0  0
  7  6  1  0  0  0  0
  8  9  2  0  0  0  0
  9 10  1  0  0  0  0
  9  1  1  0  0  0  0
 11 12  1  0  0  0  0
 11  6  1  0  0  0  0
 13 11  2  0  0  0  0
 14 15  1  0  0  0  0
M  END
>  <minimizedAffinity>
-5.47665739

$$$$

 OpenBabel09122221053D

 15 15  0  0  0  0  0  0  0  0999 V2000
    9.4210   -2.9870    0.6000 C   0  0  0  0  0  0  0  0  0  0  0  0
    9.2600   -3.6160    1.7740 C   0  0  0  0  0  3  0  0  0  0  0  0
    9.1420   -2.8170    2.9970 C   0  0  0  0  0  0  0  0  0  0  0  0
    8.9970   -3.3330    4.1070 O   0  0  0  0  0  0  0  0  0  0  0  0
    9.2020   -1.3390    2.8690 C   0  0  0  0  0  0  0  0  0  0  0  0
    9.3650   -0.8230    1.6440 C   0  0  0  0  0  0  0  0  0  0  0  0
    9.4830   -1.5980    0.4870 O   0  0  0  0  0  0  0  0  0  0  0  0
   10.6550   -3.7520   -1.3040 O   0  0  0  0  0  0  0  0  0  0  0  0
    9.5430   -3.8450   -0.6920 C   0  0  0  0  0  0  0  0  0  0  0  0
    8.5370   -4.5370   -1.0180 O   0  0  0  0  0  1  0  0  0  0  0  0
    9.4290    0.6990    1.4750 C   0  0  0  0  0  0  0  0  0  0  0  0
    8.7590    1.3760    2.3140 O   0  0  0  0  0  1  0  0  0  0  0  0
   10.1340    1.1170    0.5060 O   0  0  0  0  0  0  0  0  0  0  0  0
    9.0820   -0.6050    4.0360 O   0  0  0  0  0  0  0  0  0  0  0  0
    8.9810   -1.2860    4.7280 H   0  0  0  0  0  0  0  0  0  0  0  0
  1  2  2  0  0  0  0
  2  3  1  0  0  0  0
  3  4  2  0  0  0  0
  5  3  1  0  0  0  0
  5 14  1  0  0  0  0
  6  5  2  0  0  0  0
  7  1  1  0  0  0  0
  7  6  1  0  0  0  0
  8  9  2  0  0  0  0
  9  1  1  0  0  0  0
 10  9  1  0  0  0  0
 11  6  1  0  0  0  0
 11 12  1  0  0  0  0
 13 11  2  0  0  0  0
 14 15  1  0  0  0  0
M  END
>  <minimizedAffinity>
-5.43425322

$$$$

 OpenBabel09122221053D

 15 15  0  0  0  0  0  0  0  0999 V2000
   10.6250   -0.9700   -1.2130 C   0  0  0  0  0  0  0  0  0  0  0  0
   10.9360   -2.2710   -1.3110 C   0  0  0  0  0  3  0  0  0  0  0  0
   10.6740   -3.1520   -0.1690 C   0  0  0  0  0  0  0  0  0  0  0  0
   10.9410   -4.3550   -0.1930 O   0  0  0  0  0  0  0  0  0  0  0  0
   10.0670   -2.5520    1.0450 C   0  0  0  0  0  0  0  0  0  0  0  0
    9.7980   -1.2400    1.0280 C   0  0  0  0  0  0  0  0  0  0  0  0
   10.0600   -0.4110   -0.0650 O   0  0  0  0  0  0  0  0  0  0  0  0
   10.7010   -0.5690   -3.5720 O   0  0  0  0  0  0  0  0  0  0  0  0
   10.9050   -0.0450   -2.4310 C   0  0  0  0  0  0  0  0  0  0  0  0
   11.3150    1.1240   -2.1800 O   0  0  0  0  0  1  0  0  0  0  0  0
    9.1690   -0.5880    2.2650 C   0  0  0  0  0  0  0  0  0  0  0  0
    8.6670    0.5640    2.0860 O   0  0  0  0  0  0  0  0  0  0  0  0
    9.2310   -1.2660    3.3360 O   0  0  0  0  0  1  0  0  0  0  0  0
    9.8230   -3.4040    2.1080 O   0  0  0  0  0  0  0  0  0  0  0  0
   10.1350   -4.2710    1.7860 H   0  0  0  0  0  0  0  0  0  0  0  0
  1  7  1  0  0  0  0
  2  1  2  0  0  0  0
  2  3  1  0  0  0  0
  3  5  1  0  0  0  0
  4  3  2  0  0  0  0
  5 14  1  0  0  0  0
  6  5  2  0  0  0  0
  6 11  1  0  0  0  0
  7  6  1  0  0  0  0
  8  9  2  0  0  0  0
  9 10  1  0  0  0  0
  9  1  1  0  0  0  0
 11 13  1  0  0  0  0
 12 11  2  0  0  0  0
 15 14  1  0  0  0  0
M  END
>  <minimizedAffinity>
-5.38652086

$$$$

 OpenBabel09122221053D

 15 15  0  0  0  0  0  0  0  0999 V2000
    9.6090   -0.1950    0.8750 C   0  0  0  0  0  0  0  0  0  0  0  0
   10.2360   -0.3390   -0.3010 C   0  0  0  0  0  3  0  0  0  0  0  0
   10.3540   -1.6790   -0.8840 C   0  0  0  0  0  0  0  0  0  0  0  0
   10.9210   -1.8790   -1.9590 O   0  0  0  0  0  0  0  0  0  0  0  0
    9.7610   -2.8150   -0.1360 C   0  0  0  0  0  0  0  0  0  0  0  0
    9.1580   -2.5510    1.0310 C   0  0  0  0  0  0  0  0  0  0  0  0
    9.0590   -1.2690    1.5770 O   0  0  0  0  0  0  0  0  0  0  0  0
    8.9820    1.2850    2.6500 O   0  0  0  0  0  1  0  0  0  0  0  0
    9.4880    1.2310    1.4840 C   0  0  0  0  0  0  0  0  0  0  0  0
    9.8870    2.1950    0.7700 O   0  0  0  0  0  0  0  0  0  0  0  0
    8.5330   -3.7010    1.8280 C   0  0  0  0  0  0  0  0  0  0  0  0
    7.9850   -4.6160    1.1400 O   0  0  0  0  0  0  0  0  0  0  0  0
    8.6200   -3.6060    3.0910 O   0  0  0  0  0  1  0  0  0  0  0  0
    9.8780   -4.0690   -0.7080 O   0  0  0  0  0  0  0  0  0  0  0  0
   10.3660   -3.9010   -1.5370 H   0  0  0  0  0  0  0  0  0  0  0  0
  1  9  1  0  0  0  0
  1  7  1  0  0  0  0
  2  1  2  0  0  0  0
  3  2  1  0  0  0  0
  3  5  1  0  0  0  0
  4  3  2  0  0  0  0
  5  6  2  0  0  0  0
  6  7  1  0  0  0  0
  6 11  1  0  0  0  0
  9  8  1  0  0  0  0
 10  9  2  0  0  0  0
 11 13  1  0  0  0  0
 12 11  2  0  0  0  0
 14  5  1  0  0  0  0
 15 14  1  0  0  0  0
M  END
>  <minimizedAffinity>
-5.28587151

$$$$
