REMARK  Name = 
REMARK  9 active torsions:
REMARK  status: ('A' for Active; 'I' for Inactive)
REMARK    1  A    between atoms: C_1  and  C_2
REMARK    2  A    between atoms: C_2  and  O_3
REMARK    3  A    between atoms: O_3  and  C_4
REMARK    4  A    between atoms: C_4  and  C_6
REMARK    5  A    between atoms: C_7  and  N_8
REMARK    6  A    between atoms: N_11  and  S_12
REMARK    7  A    between atoms: S_12  and  C_15
REMARK    8  A    between atoms: C_27  and  C_28
REMARK    9  A    between atoms: C_27  and  C_29
REMARK                            x       y       z     vdW  Elec       q    Type
REMARK                         _______ _______ _______ _____ _____    ______ ____
ROOT
ATOM      1  C   UNL     1       2.210   2.292  -2.565  0.00  0.00    +0.091 A 
ATOM      2  C   UNL     1       1.092   3.536  -2.765  0.00  0.00    +0.088 A 
ATOM      3  S   UNL     1       1.509   4.957  -4.497  0.00  0.00    -0.077 S 
ATOM      4  C   UNL     1       3.602   3.618  -4.951  0.00  0.00    -0.004 A 
ATOM      5  C   UNL     1       3.669   2.308  -3.743  0.00  0.00    -0.021 A 
ATOM      6  C   UNL     1       4.779   1.313  -3.735  0.00  0.00    +0.037 C 
ATOM      7  C   UNL     1       5.970   1.806  -4.560  0.00  0.00    +0.011 C 
ATOM      8  C   UNL     1       5.630   2.336  -5.982  0.00  0.00    -0.030 C 
ATOM      9  C   UNL     1       6.966   2.592  -6.718  0.00  0.00    +0.011 C 
ATOM     10  C   UNL     1       4.848   1.287  -6.799  0.00  0.00    +0.011 C 
ATOM     11  C   UNL     1       4.849   3.699  -5.938  0.00  0.00    +0.049 C 
ENDROOT
BRANCH   2  12
ATOM     12  N   UNL     1       0.268   4.201  -1.912  0.00  0.00    -0.262 N 
ATOM     13  C   UNL     1       0.809   4.805  -0.819  0.00  0.00    +0.323 C 
ATOM     14  O   UNL     1       0.100   5.493  -0.094  0.00  0.00    -0.251 OA
ATOM     15  N   UNL     1       2.173   4.745  -0.538  0.00  0.00    -0.169 N 
ATOM     16  H   UNL     1      -0.584   4.635  -2.244  0.00  0.00    +0.157 HD
ATOM     17  H   UNL     1       2.420   5.438   0.167  0.00  0.00    +0.178 HD
BRANCH  15  18
ATOM     18  S   UNL     1       3.512   4.406  -1.462  0.00  0.00    +0.076 S 
ATOM     19  O   UNL     1       4.291   5.627  -1.367  0.00  0.00    -0.150 OA
ATOM     20  O   UNL     1       4.111   3.182  -0.976  0.00  0.00    -0.150 OA
BRANCH  18  21
ATOM     21  C   UNL     1       3.015   4.239  -3.328  0.00  0.00    +0.109 A 
ATOM     22  C   UNL     1       3.755   5.649  -4.116  0.00  0.00    +0.031 A 
ATOM     23  C   UNL     1       3.462   5.886  -5.777  0.00  0.00    +0.040 A 
ATOM     24  C   UNL     1       2.562   4.813  -6.775  0.00  0.00    +0.124 A 
ATOM     25  F   UNL     1       2.456   5.138  -8.074  0.00  0.00    -0.205 F 
ATOM     26  C   UNL     1       1.845   3.377  -6.275  0.00  0.00    +0.040 A 
ATOM     27  C   UNL     1       1.944   2.983  -4.565  0.00  0.00    +0.031 A 
ENDBRANCH  18  21
ENDBRANCH  15  18
ENDBRANCH   2  12
BRANCH   1  28
ATOM     28  C   UNL     1       2.069   1.232  -1.558  0.00  0.00    +0.342 C 
ATOM     29  O   UNL     1       2.778   0.235  -1.541  0.00  0.00    -0.245 OA
BRANCH  28  30
ATOM     30  O   UNL     1       1.029   1.464  -0.709  0.00  0.00    -0.461 OA
BRANCH  30  32
ATOM     31  C   UNL     1       0.007  -0.684  -0.227  0.00  0.00    +0.048 C 
ATOM     32  C   UNL     1       0.830   0.473   0.310  0.00  0.00    +0.229 C 
ENDBRANCH  30  32
ENDBRANCH  28  30
ENDBRANCH   1  28
TORSDOF 6
