
 OpenBabel09132204463D

 32 31  0  0  0  0  0  0  0  0999 V2000
   10.4450   -1.0770    0.8620 C   0  0  0  0  0  0  0  0  0  0  0  0
   10.4730   -1.6270    2.4540 C   0  0  0  0  0  2  0  0  0  0  0  0
   10.2300   -0.0180    4.0490 S   0  0  0  0  0 15  0  0  0  0  0  0
   10.1380    1.6740    2.1760 C   0  0  0  0  0  2  0  0  0  0  0  0
   10.2980    0.7790    0.6420 C   0  0  0  0  0  0  0  0  0  0  0  0
   10.2670    1.4790   -0.6740 C   0  0  0  0  0  2  0  0  0  0  0  0
   10.5060    2.9820   -0.5070 C   0  0  0  0  0  2  0  0  0  0  0  0
    9.6440    3.6820    0.5820 C   0  0  0  0  0  0  0  0  0  0  0  0
    9.8810    5.2060    0.4580 C   0  0  0  0  0  1  0  0  0  0  0  0
    8.1400    3.4310    0.3540 C   0  0  0  0  0  1  0  0  0  0  0  0
   10.0630    3.2580    2.0360 C   0  0  0  0  0  2  0  0  0  0  0  0
   11.0570   -2.6910    3.0670 N   0  0  0  0  0  0  0  0  0  0  0  0
   10.2710   -3.5550    3.7660 C   0  0  0  0  0  0  0  0  0  0  0  0
   10.7610   -4.5730    4.2400 O   0  0  0  0  0  0  0  0  0  0  0  0
    8.8940   -3.3700    3.8880 N   0  0  0  0  0  0  0  0  0  0  0  0
   11.8990   -3.1100    2.6920 H   0  0  0  0  0  0  0  0  0  0  0  0
    8.4520   -4.2220    4.2320 H   0  0  0  0  0  0  0  0  0  0  0  0
    7.7820   -2.4890    3.0230 S   0  0  0  0  0  0  0  0  0  0  0  0
    7.8880   -1.1660    3.6090 O   0  0  0  0  0  0  0  0  0  0  0  0
    8.0760   -2.6300    1.6140 O   0  0  0  0  0  0  0  0  0  0  0  0
    5.9860   -3.1020    3.4190 C   0  0  0  0  0  2  0  0  0  0  0  0
    4.9290   -1.8060    2.8190 C   0  0  0  0  0  3  0  0  0  0  0  0
    3.2510   -1.9590    3.0680 C   0  0  0  0  0  3  0  0  0  0  0  0
    2.4890   -3.3200    3.7930 C   0  0  0  0  0  0  0  0  0  0  0  0
    1.1490   -3.2880    3.8830 F   0  0  0  0  0  0  0  0  0  0  0  0
    3.2710   -4.6980    4.3560 C   0  0  0  0  0  3  0  0  0  0  0  0
    5.0270   -4.7110    4.2820 C   0  0  0  0  0  1  0  0  0  0  0  0
   10.5050   -1.9700   -0.3030 C   0  0  0  0  0  0  0  0  0  0  0  0
   10.2170   -1.6040   -1.4340 O   0  0  0  0  0  0  0  0  0  0  0  0
   10.8490   -3.2430    0.0410 O   0  0  0  0  0  0  0  0  0  0  0  0
    8.9170   -4.7110   -0.0020 C   0  0  0  0  0  1  0  0  0  0  0  0
   10.1940   -4.2820   -0.7020 C   0  0  0  0  0  2  0  0  0  0  0  0
  1  2  1  0  0  0  0
  2 12  1  0  0  0  0
  5  1  2  0  0  0  0
  5  4  1  0  0  0  0
  6  7  1  0  0  0  0
  6  5  1  0  0  0  0
  7  8  1  0  0  0  0
  8 11  1  0  0  0  0
  9  8  1  0  0  0  0
 10  8  1  0  0  0  0
 11  4  1  0  0  0  0
 12 13  1  0  0  0  0
 13 15  1  0  0  0  0
 13 14  2  0  0  0  0
 15 17  1  0  0  0  0
 16 12  1  0  0  0  0
 18 21  1  0  0  0  0
 18 19  2  0  0  0  0
 18 15  1  0  0  0  0
 20 18  2  0  0  0  0
 22 23  2  0  0  0  0
 22 21  1  0  0  0  0
 23 24  1  0  0  0  0
 24 25  1  0  0  0  0
 24 26  2  0  0  0  0
 27 26  1  0  0  0  0
 28 30  1  0  0  0  0
 28  1  1  0  0  0  0
 29 28  2  0  0  0  0
 32 31  1  0  0  0  0
 32 30  1  0  0  0  0
M  END
>  <minimizedAffinity>
12.9924793

$$$$
