REMARK  Name = 
REMARK  6 active torsions:
REMARK  status: ('A' for Active; 'I' for Inactive)
REMARK    1  A    between atoms: C_2  and  C_4
REMARK    2  A    between atoms: C_6  and  C_7
REMARK    3  A    between atoms: C_7  and  O_8
REMARK    4  A    between atoms: O_8  and  C_9
REMARK    5  A    between atoms: C_9  and  C_10
REMARK    6  A    between atoms: C_19  and  O_20
REMARK                            x       y       z     vdW  Elec       q    Type
REMARK                         _______ _______ _______ _____ _____    ______ ____
ROOT
ATOM      1  C   UNL     1       2.886   0.384  -1.246  0.00  0.00    +0.195 A 
ATOM      2  O   UNL     1       2.584   1.621  -1.801  0.00  0.00    -0.452 OA
ATOM      3  C   UNL     1       3.389   2.121  -2.811  0.00  0.00    +0.135 A 
ATOM      4  C   UNL     1       4.472   1.475  -3.264  0.00  0.00    +0.098 A 
ATOM      5  C   UNL     1       4.818   0.172  -2.677  0.00  0.00    +0.227 A 
ATOM      6  O   UNL     1       5.799  -0.463  -3.061  0.00  0.00    -0.284 OA
ATOM      7  C   UNL     1       3.936  -0.363  -1.611  0.00  0.00    +0.209 A 
ENDROOT
BRANCH   1   9
ATOM      8  O   UNL     1       0.935  -0.776  -0.590  0.00  0.00    -0.541 OA
ATOM      9  C   UNL     1       1.924  -0.109  -0.164  0.00  0.00    +0.111 C 
ATOM     10  O   UNL     1       2.198   0.270   1.012  0.00  0.00    -0.541 OA
ENDBRANCH   1   9
BRANCH   7  11
ATOM     11  O   UNL     1       4.258  -1.593  -1.075  0.00  0.00    -0.501 OA
ATOM     12  H   UNL     1       5.068  -1.869  -1.545  0.00  0.00    +0.292 HD
ENDBRANCH   7  11
BRANCH   3  13
ATOM     13  C   UNL     1       2.951   3.450  -3.365  0.00  0.00    +0.234 C 
BRANCH  13  14
ATOM     14  O   UNL     1       1.608   3.467  -3.855  0.00  0.00    -0.368 OA
BRANCH  14  15
ATOM     15  C   UNL     1       1.310   2.495  -4.856  0.00  0.00    +0.195 C 
BRANCH  15  16
ATOM     16  C   UNL     1       2.052   2.740  -6.149  0.00  0.00    -0.022 A 
ATOM     17  C   UNL     1       2.821   1.724  -6.732  0.00  0.00    +0.006 A 
ATOM     18  C   UNL     1       3.508   1.953  -7.925  0.00  0.00    +0.000 A 
ATOM     19  C   UNL     1       3.429   3.197  -8.549  0.00  0.00    +0.000 A 
ATOM     20  C   UNL     1       2.661   4.213  -7.982  0.00  0.00    +0.000 A 
ATOM     21  C   UNL     1       1.974   3.985  -6.788  0.00  0.00    +0.006 A 
ENDBRANCH  15  16
ENDBRANCH  14  15
ENDBRANCH  13  14
ENDBRANCH   3  13
TORSDOF 6
