
 OpenBabel09122222393D

 21 22  0  0  0  0  0  0  0  0999 V2000
    8.6920   -3.6100    1.4000 C   0  0  0  0  0  0  0  0  0  0  0  0
    7.7060   -4.2870    2.1070 O   0  0  0  0  0  0  0  0  0  0  0  0
    6.9570   -5.2550    1.4590 C   0  0  0  0  0  0  0  0  0  0  0  0
    7.1200   -5.5530    0.1630 C   0  0  0  0  0  3  0  0  0  0  0  0
    8.1470   -4.8350   -0.6070 C   0  0  0  0  0  0  0  0  0  0  0  0
    8.3390   -5.0750   -1.7980 O   0  0  0  0  0  0  0  0  0  0  0  0
    8.9570   -3.8150    0.1040 C   0  0  0  0  0  0  0  0  0  0  0  0
    9.7140   -1.4900    1.6050 O   0  0  0  0  0  0  0  0  0  0  0  0
    9.4960   -2.5850    2.2020 C   0  0  0  0  0  0  0  0  0  0  0  0
    9.9020   -2.9860    3.3320 O   0  0  0  0  0  1  0  0  0  0  0  0
    9.9290   -3.1560   -0.6210 O   0  0  0  0  0  0  0  0  0  0  0  0
    9.8670   -3.5250   -1.5220 H   0  0  0  0  0  0  0  0  0  0  0  0
    5.9430   -5.9520    2.3260 C   0  0  0  0  0  2  0  0  0  0  0  0
    5.8160   -5.3980    3.6380 O   0  0  0  0  0  0  0  0  0  0  0  0
    5.3770   -4.0420    3.6900 C   0  0  0  0  0  2  0  0  0  0  0  0
    3.9480   -3.9060    4.1620 C   0  0  0  0  0  0  0  0  0  0  0  0
    3.4110   -2.6450    4.4530 C   0  0  0  0  0  3  0  0  0  0  0  0
    2.0920   -2.5220    4.8910 C   0  0  0  0  0  3  0  0  0  0  0  0
    1.2960   -3.6570    5.0390 C   0  0  0  0  0  3  0  0  0  0  0  0
    1.8170   -4.9160    4.7460 C   0  0  0  0  0  3  0  0  0  0  0  0
    3.1370   -5.0400    4.3070 C   0  0  0  0  0  3  0  0  0  0  0  0
  1  2  1  0  0  0  0
  1  9  1  0  0  0  0
  3  2  1  0  0  0  0
  3 13  1  0  0  0  0
  4  3  2  0  0  0  0
  5  7  1  0  0  0  0
  5  4  1  0  0  0  0
  6  5  2  0  0  0  0
  7  1  2  0  0  0  0
  8  9  2  0  0  0  0
  9 10  1  0  0  0  0
 11  7  1  0  0  0  0
 12 11  1  0  0  0  0
 13 14  1  0  0  0  0
 14 15  1  0  0  0  0
 15 16  1  0  0  0  0
 16 21  2  0  0  0  0
 16 17  1  0  0  0  0
 17 18  2  0  0  0  0
 18 19  1  0  0  0  0
 20 19  2  0  0  0  0
 21 20  1  0  0  0  0
M  END
>  <minimizedAffinity>
-4.73199606

$$$$
