
 OpenBabel09122222393D

 21 22  0  0  0  0  0  0  0  0999 V2000
    6.3870   -4.9970    1.9330 C   0  0  0  0  0  0  0  0  0  0  0  0
    7.1730   -4.2890    2.8340 O   0  0  0  0  0  0  0  0  0  0  0  0
    6.6010   -3.8200    4.0040 C   0  0  0  0  0  0  0  0  0  0  0  0
    5.3050   -3.9940    4.3010 C   0  0  0  0  0  3  0  0  0  0  0  0
    4.4530   -4.7260    3.3520 C   0  0  0  0  0  0  0  0  0  0  0  0
    3.2590   -4.9160    3.5800 O   0  0  0  0  0  0  0  0  0  0  0  0
    5.0820   -5.2420    2.1120 C   0  0  0  0  0  0  0  0  0  0  0  0
    6.3520   -5.7960   -0.2900 O   0  0  0  0  0  0  0  0  0  0  0  0
    7.1070   -5.5100    0.6860 C   0  0  0  0  0  0  0  0  0  0  0  0
    8.3590   -5.6510    0.8080 O   0  0  0  0  0  1  0  0  0  0  0  0
    4.2800   -5.9410    1.2330 O   0  0  0  0  0  0  0  0  0  0  0  0
    3.3950   -5.9410    1.6450 H   0  0  0  0  0  0  0  0  0  0  0  0
    7.5490   -3.0990    4.9240 C   0  0  0  0  0  2  0  0  0  0  0  0
    8.9310   -3.2950    4.6120 O   0  0  0  0  0  0  0  0  0  0  0  0
    9.6780   -2.1040    4.3690 C   0  0  0  0  0  2  0  0  0  0  0  0
    9.6550   -1.6850    2.9180 C   0  0  0  0  0  0  0  0  0  0  0  0
    9.9270   -2.6130    1.9040 C   0  0  0  0  0  3  0  0  0  0  0  0
    9.9080   -2.2230    0.5640 C   0  0  0  0  0  3  0  0  0  0  0  0
    9.6130   -0.9030    0.2250 C   0  0  0  0  0  3  0  0  0  0  0  0
    9.3340    0.0270    1.2250 C   0  0  0  0  0  3  0  0  0  0  0  0
    9.3540   -0.3620    2.5650 C   0  0  0  0  0  3  0  0  0  0  0  0
  1  7  2  0  0  0  0
  1  2  1  0  0  0  0
  2  3  1  0  0  0  0
  3  4  2  0  0  0  0
  3 13  1  0  0  0  0
  5  6  2  0  0  0  0
  5  4  1  0  0  0  0
  7  5  1  0  0  0  0
  8  9  2  0  0  0  0
  9 10  1  0  0  0  0
  9  1  1  0  0  0  0
 11 12  1  0  0  0  0
 11  7  1  0  0  0  0
 14 13  1  0  0  0  0
 15 14  1  0  0  0  0
 16 15  1  0  0  0  0
 17 16  2  0  0  0  0
 18 17  1  0  0  0  0
 19 18  2  0  0  0  0
 19 20  1  0  0  0  0
 20 21  2  0  0  0  0
 21 16  1  0  0  0  0
M  END
>  <minimizedAffinity>
-5.08998203

$$$$
