
 OpenBabel09122222393D

 21 22  0  0  0  0  0  0  0  0999 V2000
    9.5680    0.1610    1.7110 C   0  0  0  0  0  0  0  0  0  0  0  0
    9.5010   -0.6150    2.8610 O   0  0  0  0  0  0  0  0  0  0  0  0
    9.6060   -1.9920    2.7510 C   0  0  0  0  0  0  0  0  0  0  0  0
    9.7430   -2.6190    1.5750 C   0  0  0  0  0  3  0  0  0  0  0  0
    9.7990   -1.8150    0.3450 C   0  0  0  0  0  0  0  0  0  0  0  0
    9.9290   -2.3420   -0.7590 O   0  0  0  0  0  0  0  0  0  0  0  0
    9.7070   -0.3400    0.4770 C   0  0  0  0  0  0  0  0  0  0  0  0
    9.7830    2.3760    0.9180 O   0  0  0  0  0  0  0  0  0  0  0  0
    9.4820    1.6730    1.9270 C   0  0  0  0  0  0  0  0  0  0  0  0
    9.1880    2.0320    3.1050 O   0  0  0  0  0  1  0  0  0  0  0  0
    9.7760    0.4090   -0.6800 O   0  0  0  0  0  0  0  0  0  0  0  0
    9.8710   -0.2450   -1.3980 H   0  0  0  0  0  0  0  0  0  0  0  0
    9.5560   -2.7330    4.0600 C   0  0  0  0  0  2  0  0  0  0  0  0
    8.5110   -3.7040    4.1450 O   0  0  0  0  0  0  0  0  0  0  0  0
    7.1980   -3.2140    3.8790 C   0  0  0  0  0  2  0  0  0  0  0  0
    6.3910   -4.1460    3.0050 C   0  0  0  0  0  0  0  0  0  0  0  0
    5.0070   -4.2720    3.1860 C   0  0  0  0  0  3  0  0  0  0  0  0
    4.2640   -5.1350    2.3790 C   0  0  0  0  0  3  0  0  0  0  0  0
    4.8960   -5.8760    1.3820 C   0  0  0  0  0  3  0  0  0  0  0  0
    6.2710   -5.7540    1.1890 C   0  0  0  0  0  3  0  0  0  0  0  0
    7.0150   -4.8910    1.9960 C   0  0  0  0  0  3  0  0  0  0  0  0
  1  9  1  0  0  0  0
  1  2  1  0  0  0  0
  3  2  1  0  0  0  0
  3 13  1  0  0  0  0
  4  3  2  0  0  0  0
  5  7  1  0  0  0  0
  5  4  1  0  0  0  0
  6  5  2  0  0  0  0
  7  1  2  0  0  0  0
  8  9  2  0  0  0  0
  9 10  1  0  0  0  0
 11  7  1  0  0  0  0
 12 11  1  0  0  0  0
 13 14  1  0  0  0  0
 15 14  1  0  0  0  0
 16 17  1  0  0  0  0
 16 15  1  0  0  0  0
 18 17  2  0  0  0  0
 19 18  1  0  0  0  0
 20 19  2  0  0  0  0
 20 21  1  0  0  0  0
 21 16  2  0  0  0  0
M  END
>  <minimizedAffinity>
-5.11239862

$$$$
