
 OpenBabel09122222393D

 21 22  0  0  0  0  0  0  0  0999 V2000
    6.4740   -5.0850    1.2800 C   0  0  0  0  0  0  0  0  0  0  0  0
    7.1040   -4.4330    2.3320 O   0  0  0  0  0  0  0  0  0  0  0  0
    8.3530   -3.8700    2.1260 C   0  0  0  0  0  0  0  0  0  0  0  0
    9.0010   -3.9510    0.9560 C   0  0  0  0  0  3  0  0  0  0  0  0
    8.3580   -4.6530   -0.1650 C   0  0  0  0  0  0  0  0  0  0  0  0
    8.9100   -4.7500   -1.2600 O   0  0  0  0  0  0  0  0  0  0  0  0
    7.0120   -5.2320    0.0620 C   0  0  0  0  0  0  0  0  0  0  0  0
    4.2860   -5.6630    0.6000 O   0  0  0  0  0  0  0  0  0  0  0  0
    5.0830   -5.6430    1.5850 C   0  0  0  0  0  0  0  0  0  0  0  0
    4.8800   -5.9500    2.7960 O   0  0  0  0  0  1  0  0  0  0  0  0
    6.4080   -5.8770   -0.9980 O   0  0  0  0  0  0  0  0  0  0  0  0
    7.0510   -5.8150   -1.7300 H   0  0  0  0  0  0  0  0  0  0  0  0
    8.9270   -3.1570    3.3200 C   0  0  0  0  0  2  0  0  0  0  0  0
    9.7910   -2.0660    2.9920 O   0  0  0  0  0  0  0  0  0  0  0  0
    9.2130   -0.7680    3.1170 C   0  0  0  0  0  2  0  0  0  0  0  0
    9.4630    0.1030    1.9090 C   0  0  0  0  0  0  0  0  0  0  0  0
    9.6660   -0.4710    0.6470 C   0  0  0  0  0  3  0  0  0  0  0  0
    9.9000    0.3360   -0.4680 C   0  0  0  0  0  3  0  0  0  0  0  0
    9.9290    1.7230   -0.3330 C   0  0  0  0  0  3  0  0  0  0  0  0
    9.7220    2.3060    0.9170 C   0  0  0  0  0  3  0  0  0  0  0  0
    9.4880    1.4990    2.0330 C   0  0  0  0  0  3  0  0  0  0  0  0
  1  9  1  0  0  0  0
  1  2  1  0  0  0  0
  3  2  1  0  0  0  0
  3 13  1  0  0  0  0
  4  3  2  0  0  0  0
  5  7  1  0  0  0  0
  5  4  1  0  0  0  0
  6  5  2  0  0  0  0
  7  1  2  0  0  0  0
  8  9  2  0  0  0  0
  9 10  1  0  0  0  0
 11  7  1  0  0  0  0
 12 11  1  0  0  0  0
 14 15  1  0  0  0  0
 14 13  1  0  0  0  0
 16 21  1  0  0  0  0
 16 15  1  0  0  0  0
 17 16  2  0  0  0  0
 18 19  2  0  0  0  0
 18 17  1  0  0  0  0
 19 20  1  0  0  0  0
 20 21  2  0  0  0  0
M  END
>  <minimizedAffinity>
-5.09173298

$$$$
