
 OpenBabel09122222393D

 21 22  0  0  0  0  0  0  0  0999 V2000
    5.0600   -4.4590    3.3120 C   0  0  0  0  0  0  0  0  0  0  0  0
    5.9940   -3.7800    4.0830 O   0  0  0  0  0  0  0  0  0  0  0  0
    7.3030   -3.6960    3.6380 C   0  0  0  0  0  0  0  0  0  0  0  0
    7.7220   -4.2680    2.5010 C   0  0  0  0  0  3  0  0  0  0  0  0
    6.7520   -5.0070    1.6790 C   0  0  0  0  0  0  0  0  0  0  0  0
    7.0850   -5.5460    0.6250 O   0  0  0  0  0  0  0  0  0  0  0  0
    5.3490   -5.0710    2.1560 C   0  0  0  0  0  0  0  0  0  0  0  0
    3.1570   -5.6210    4.0920 O   0  0  0  0  0  1  0  0  0  0  0  0
    3.6320   -4.4700    3.8580 C   0  0  0  0  0  0  0  0  0  0  0  0
    3.0800   -3.3350    3.9420 O   0  0  0  0  0  0  0  0  0  0  0  0
    4.4400   -5.7530    1.3720 O   0  0  0  0  0  0  0  0  0  0  0  0
    4.9590   -6.0810    0.6120 H   0  0  0  0  0  0  0  0  0  0  0  0
    8.2220   -2.9070    4.5310 C   0  0  0  0  0  2  0  0  0  0  0  0
    9.3610   -2.3590    3.8630 O   0  0  0  0  0  0  0  0  0  0  0  0
    9.3320   -0.9460    3.6640 C   0  0  0  0  0  2  0  0  0  0  0  0
    9.5400   -0.5540    2.2200 C   0  0  0  0  0  0  0  0  0  0  0  0
    9.5480    0.7950    1.8430 C   0  0  0  0  0  3  0  0  0  0  0  0
    9.7380    1.1560    0.5080 C   0  0  0  0  0  3  0  0  0  0  0  0
    9.9270    0.1720   -0.4610 C   0  0  0  0  0  3  0  0  0  0  0  0
    9.9290   -1.1740   -0.0960 C   0  0  0  0  0  3  0  0  0  0  0  0
    9.7380   -1.5350    1.2390 C   0  0  0  0  0  3  0  0  0  0  0  0
  1  9  1  0  0  0  0
  1  2  1  0  0  0  0
  3  2  1  0  0  0  0
  3 13  1  0  0  0  0
  4  3  2  0  0  0  0
  5  7  1  0  0  0  0
  5  4  1  0  0  0  0
  6  5  2  0  0  0  0
  7  1  2  0  0  0  0
  9 10  2  0  0  0  0
  9  8  1  0  0  0  0
 11  7  1  0  0  0  0
 12 11  1  0  0  0  0
 14 13  1  0  0  0  0
 15 14  1  0  0  0  0
 16 15  1  0  0  0  0
 17 16  1  0  0  0  0
 18 17  2  0  0  0  0
 19 20  2  0  0  0  0
 19 18  1  0  0  0  0
 20 21  1  0  0  0  0
 21 16  2  0  0  0  0
M  END
>  <minimizedAffinity>
-4.21544409

$$$$
