
 OpenBabel09122222393D

 21 22  0  0  0  0  0  0  0  0999 V2000
    9.0880   -3.1080    0.9790 C   0  0  0  0  0  0  0  0  0  0  0  0
    8.7730   -3.5600    2.2540 O   0  0  0  0  0  0  0  0  0  0  0  0
    8.7650   -2.6590    3.3050 C   0  0  0  0  0  0  0  0  0  0  0  0
    9.0770   -1.3650    3.1550 C   0  0  0  0  0  3  0  0  0  0  0  0
    9.4300   -0.8710    1.8160 C   0  0  0  0  0  0  0  0  0  0  0  0
    9.7200    0.3090    1.6250 O   0  0  0  0  0  0  0  0  0  0  0  0
    9.4140   -1.8410    0.6940 C   0  0  0  0  0  0  0  0  0  0  0  0
    8.1490   -5.0530    0.0210 O   0  0  0  0  0  1  0  0  0  0  0  0
    9.0360   -4.1620   -0.1290 C   0  0  0  0  0  0  0  0  0  0  0  0
    9.9290   -4.0510   -1.0190 O   0  0  0  0  0  0  0  0  0  0  0  0
    9.7320   -1.3670   -0.5620 O   0  0  0  0  0  0  0  0  0  0  0  0
    9.9220   -0.4180   -0.4340 H   0  0  0  0  0  0  0  0  0  0  0  0
    8.3750   -3.2470    4.6350 C   0  0  0  0  0  2  0  0  0  0  0  0
    6.9640   -3.3530    4.8380 O   0  0  0  0  0  0  0  0  0  0  0  0
    6.2200   -3.8340    3.7190 C   0  0  0  0  0  2  0  0  0  0  0  0
    4.7840   -4.1510    4.0640 C   0  0  0  0  0  0  0  0  0  0  0  0
    4.3920   -5.4680    4.3410 C   0  0  0  0  0  3  0  0  0  0  0  0
    3.0640   -5.7600    4.6570 C   0  0  0  0  0  3  0  0  0  0  0  0
    2.1170   -4.7380    4.7040 C   0  0  0  0  0  3  0  0  0  0  0  0
    2.4970   -3.4230    4.4390 C   0  0  0  0  0  3  0  0  0  0  0  0
    3.8250   -3.1310    4.1220 C   0  0  0  0  0  3  0  0  0  0  0  0
  1  2  1  0  0  0  0
  2  3  1  0  0  0  0
  3 13  1  0  0  0  0
  4  3  2  0  0  0  0
  5  4  1  0  0  0  0
  6  5  2  0  0  0  0
  7  1  2  0  0  0  0
  7  5  1  0  0  0  0
  9  8  1  0  0  0  0
  9  1  1  0  0  0  0
 10  9  2  0  0  0  0
 11 12  1  0  0  0  0
 11  7  1  0  0  0  0
 13 14  1  0  0  0  0
 15 16  1  0  0  0  0
 15 14  1  0  0  0  0
 16 21  2  0  0  0  0
 16 17  1  0  0  0  0
 17 18  2  0  0  0  0
 18 19  1  0  0  0  0
 20 19  2  0  0  0  0
 21 20  1  0  0  0  0
M  END
>  <minimizedAffinity>
-5.1826911

$$$$
