REMARK  Name = 
REMARK  6 active torsions:
REMARK  status: ('A' for Active; 'I' for Inactive)
REMARK    1  A    between atoms: C_2  and  C_4
REMARK    2  A    between atoms: C_4  and  C_6
REMARK    3  A    between atoms: C_7  and  C_9
REMARK    4  A    between atoms: C_13  and  O_14
REMARK    5  A    between atoms: O_14  and  C_15
REMARK    6  A    between atoms: C_15  and  C_16
REMARK                            x       y       z     vdW  Elec       q    Type
REMARK                         _______ _______ _______ _____ _____    ______ ____
ROOT
ATOM      1  C   UNL     1       6.556  -1.234  -0.105  0.00  0.00    -0.029 A 
ATOM      2  C   UNL     1       7.008  -0.753  -1.340  0.00  0.00    +0.007 A 
ATOM      3  C   UNL     1       8.118   0.090  -1.400  0.00  0.00    +0.004 A 
ATOM      4  C   UNL     1       8.772   0.463  -0.223  0.00  0.00    +0.046 A 
ATOM      5  C   UNL     1       8.326  -0.002   1.019  0.00  0.00    +0.122 A 
ATOM      6  C   UNL     1       7.236  -0.870   1.067  0.00  0.00    +0.053 A 
ENDROOT
BRANCH   1   8
ATOM      7  C   UNL     1       4.229  -1.340   0.036  0.00  0.00    +0.045 C 
ATOM      8  C   UNL     1       5.345  -2.114  -0.016  0.00  0.00    -0.097 C 
ATOM      9  O   UNL     1       5.505  -3.367   0.020  0.00  0.00    -0.873 OA
BRANCH   7  10
ATOM     10  C   UNL     1       2.772  -1.725   0.151  0.00  0.00    +0.201 C 
ATOM     11  O   UNL     1       2.323  -2.869   0.185  0.00  0.00    -0.286 OA
BRANCH  10  13
ATOM     12  O   UNL     1       0.475  -0.883   0.293  0.00  0.00    -0.541 OA
ATOM     13  C   UNL     1       1.715  -0.575   0.237  0.00  0.00    +0.111 C 
ATOM     14  O   UNL     1       2.159   0.627   0.248  0.00  0.00    -0.541 OA
ENDBRANCH  10  13
ENDBRANCH   7  10
ENDBRANCH   1   8
BRANCH   5  15
ATOM     15  O   UNL     1       9.044   0.447   2.097  0.00  0.00    -0.487 OA
BRANCH  15  16
ATOM     16  C   UNL     1       8.399   0.410   3.373  0.00  0.00    +0.265 C 
BRANCH  16  17
ATOM     17  C   UNL     1       7.428   1.558   3.572  0.00  0.00    -0.003 A 
ATOM     18  C   UNL     1       6.054   1.258   3.617  0.00  0.00    +0.007 A 
ATOM     19  C   UNL     1       5.108   2.262   3.781  0.00  0.00    +0.001 A 
ATOM     20  C   UNL     1       5.518   3.584   3.916  0.00  0.00    +0.008 A 
ATOM     21  C   UNL     1       6.878   3.924   3.871  0.00  0.00    -0.018 A 
ATOM     22  C   UNL     1       7.270   5.268   3.991  0.00  0.00    +0.008 A 
ATOM     23  C   UNL     1       8.613   5.633   3.926  0.00  0.00    +0.001 A 
ATOM     24  C   UNL     1       9.583   4.658   3.738  0.00  0.00    +0.001 A 
ATOM     25  C   UNL     1       9.208   3.316   3.621  0.00  0.00    +0.009 A 
ATOM     26  C   UNL     1       7.855   2.911   3.689  0.00  0.00    -0.011 A 
ENDBRANCH  16  17
ENDBRANCH  15  16
ENDBRANCH   5  15
TORSDOF 6
