
 OpenBabel09132204463D

 26 28  0  0  0  0  0  0  0  0999 V2000
    5.8270   -5.6880    1.4690 C   0  0  0  0  0  0  0  0  0  0  0  0
    5.1660   -6.0810    0.2990 C   0  0  0  0  0  3  0  0  0  0  0  0
    5.8240   -6.0260   -0.9300 C   0  0  0  0  0  3  0  0  0  0  0  0
    7.1420   -5.5660   -0.9930 C   0  0  0  0  0  3  0  0  0  0  0  0
    7.8120   -5.1610    0.1670 C   0  0  0  0  0  0  0  0  0  0  0  0
    7.1580   -5.2500    1.3950 C   0  0  0  0  0  3  0  0  0  0  0  0
    4.4020   -4.5680    2.9380 C   0  0  0  0  0  2  0  0  0  0  0  0
    5.1270   -5.7080    2.7950 C   0  0  0  0  0  0  0  0  0  0  0  0
    5.3040   -6.6970    3.5610 O   0  0  0  0  0  0  0  0  0  0  0  0
    3.5410   -4.0900    4.0850 C   0  0  0  0  0  0  0  0  0  0  0  0
    2.3420   -4.3150    4.2370 O   0  0  0  0  0  0  0  0  0  0  0  0
    5.4170   -3.4980    5.5450 O   0  0  0  0  0  0  0  0  0  0  0  0
    4.2170   -3.2240    5.1980 C   0  0  0  0  0  0  0  0  0  0  0  0
    3.5210   -2.2750    5.7040 O   0  0  0  0  0  1  0  0  0  0  0  0
    9.0950   -4.7180   -0.0300 O   0  0  0  0  0  0  0  0  0  0  0  0
    9.5550   -3.6550    0.8080 C   0  0  0  0  0  2  0  0  0  0  0  0
   10.0470   -2.4570    0.0180 C   0  0  0  0  0  0  0  0  0  0  0  0
   10.7470   -2.7000   -1.1790 C   0  0  0  0  0  3  0  0  0  0  0  0
   11.2390   -1.6510   -1.9440 C   0  0  0  0  0  3  0  0  0  0  0  0
   11.0310   -0.3380   -1.5350 C   0  0  0  0  0  3  0  0  0  0  0  0
   10.3430   -0.0550   -0.3460 C   0  0  0  0  0  0  0  0  0  0  0  0
   10.1590    1.2780    0.0590 C   0  0  0  0  0  3  0  0  0  0  0  0
    9.5000    1.5830    1.2480 C   0  0  0  0  0  3  0  0  0  0  0  0
    9.0170    0.5580    2.0490 C   0  0  0  0  0  3  0  0  0  0  0  0
    9.1890   -0.7730    1.6570 C   0  0  0  0  0  3  0  0  0  0  0  0
    9.8470   -1.1170    0.4540 C   0  0  0  0  0  0  0  0  0  0  0  0
  1  8  1  0  0  0  0
  2  1  2  0  0  0  0
  3  2  1  0  0  0  0
  4  3  2  0  0  0  0
  4  5  1  0  0  0  0
  5  6  2  0  0  0  0
  6  1  1  0  0  0  0
  7 10  1  0  0  0  0
  8  7  1  0  0  0  0
  8  9  2  0  0  0  0
 10 11  2  0  0  0  0
 10 13  1  0  0  0  0
 13 12  2  0  0  0  0
 13 14  1  0  0  0  0
 15  5  1  0  0  0  0
 15 16  1  0  0  0  0
 17 26  1  0  0  0  0
 17 16  1  0  0  0  0
 18 17  2  0  0  0  0
 19 20  2  0  0  0  0
 19 18  1  0  0  0  0
 20 21  1  0  0  0  0
 21 22  2  0  0  0  0
 21 26  1  0  0  0  0
 22 23  1  0  0  0  0
 23 24  2  0  0  0  0
 25 24  1  0  0  0  0
 26 25  2  0  0  0  0
M  END
>  <minimizedAffinity>
-8.35065651

$$$$
