
 OpenBabel09122223323D

 26 28  0  0  0  0  0  0  0  0999 V2000
    6.4080   -5.8350    1.2320 C   0  0  0  0  0  0  0  0  0  0  0  0
    5.7430   -5.9710    0.0070 C   0  0  0  0  0  3  0  0  0  0  0  0
    6.3830   -5.6170   -1.1800 C   0  0  0  0  0  3  0  0  0  0  0  0
    7.6870   -5.1150   -1.1450 C   0  0  0  0  0  3  0  0  0  0  0  0
    8.3600   -4.9650    0.0730 C   0  0  0  0  0  0  0  0  0  0  0  0
    7.7250   -5.3520    1.2520 C   0  0  0  0  0  3  0  0  0  0  0  0
    5.1340   -5.0650    3.0300 C   0  0  0  0  0  2  0  0  0  0  0  0
    5.7250   -6.1790    2.5230 C   0  0  0  0  0  0  0  0  0  0  0  0
    5.8000   -7.3650    2.9540 O   0  0  0  0  0  0  0  0  0  0  0  0
    4.3460   -4.8660    4.3040 C   0  0  0  0  0  0  0  0  0  0  0  0
    4.6190   -5.3330    5.4080 O   0  0  0  0  0  0  0  0  0  0  0  0
    1.9310   -4.5170    4.5300 O   0  0  0  0  0  1  0  0  0  0  0  0
    3.0560   -3.9840    4.2370 C   0  0  0  0  0  0  0  0  0  0  0  0
    3.2030   -2.7590    3.8890 O   0  0  0  0  0  0  0  0  0  0  0  0
    9.6270   -4.4500   -0.0260 O   0  0  0  0  0  0  0  0  0  0  0  0
    9.7460   -3.0350   -0.1960 C   0  0  0  0  0  2  0  0  0  0  0  0
   10.9550   -2.6440   -1.0230 C   0  0  0  0  0  0  0  0  0  0  0  0
   11.8360   -3.6650   -1.4250 C   0  0  0  0  0  3  0  0  0  0  0  0
   12.9720   -3.3770   -2.1710 C   0  0  0  0  0  3  0  0  0  0  0  0
   13.2430   -2.0630   -2.5400 C   0  0  0  0  0  3  0  0  0  0  0  0
   12.3920   -1.0170   -2.1540 C   0  0  0  0  0  0  0  0  0  0  0  0
   12.6940    0.3050   -2.5210 C   0  0  0  0  0  3  0  0  0  0  0  0
   11.8770    1.3640   -2.1300 C   0  0  0  0  0  3  0  0  0  0  0  0
   10.7470    1.1140   -1.3630 C   0  0  0  0  0  3  0  0  0  0  0  0
   10.4320   -0.1970   -0.9930 C   0  0  0  0  0  3  0  0  0  0  0  0
   11.2360   -1.2940   -1.3790 C   0  0  0  0  0  0  0  0  0  0  0  0
  1  6  1  0  0  0  0
  1  8  1  0  0  0  0
  2  1  2  0  0  0  0
  3  4  2  0  0  0  0
  3  2  1  0  0  0  0
  4  5  1  0  0  0  0
  5  6  2  0  0  0  0
  7 10  1  0  0  0  0
  8  9  2  0  0  0  0
  8  7  1  0  0  0  0
 10 11  2  0  0  0  0
 13 10  1  0  0  0  0
 13 12  1  0  0  0  0
 14 13  2  0  0  0  0
 15  5  1  0  0  0  0
 16 15  1  0  0  0  0
 17 16  1  0  0  0  0
 18 17  2  0  0  0  0
 19 18  1  0  0  0  0
 20 19  2  0  0  0  0
 20 21  1  0  0  0  0
 21 26  1  0  0  0  0
 22 21  2  0  0  0  0
 22 23  1  0  0  0  0
 23 24  2  0  0  0  0
 24 25  1  0  0  0  0
 26 17  1  0  0  0  0
 26 25  2  0  0  0  0
M  END
>  <minimizedAffinity>
-9.12409019

$$$$

 OpenBabel09122223323D

 26 28  0  0  0  0  0  0  0  0999 V2000
    6.1360   -5.7990    1.3310 C   0  0  0  0  0  0  0  0  0  0  0  0
    5.5890   -5.9590    0.0510 C   0  0  0  0  0  3  0  0  0  0  0  0
    6.3580   -5.6820   -1.0790 C   0  0  0  0  0  3  0  0  0  0  0  0
    7.6730   -5.2330   -0.9330 C   0  0  0  0  0  3  0  0  0  0  0  0
    8.2300   -5.0590    0.3390 C   0  0  0  0  0  0  0  0  0  0  0  0
    7.4650   -5.3700    1.4630 C   0  0  0  0  0  3  0  0  0  0  0  0
    4.4940   -5.0000    2.7840 C   0  0  0  0  0  2  0  0  0  0  0  0
    5.3160   -6.0590    2.5590 C   0  0  0  0  0  0  0  0  0  0  0  0
    5.4960   -7.1370    3.1930 O   0  0  0  0  0  0  0  0  0  0  0  0
    3.4930   -4.7530    3.8890 C   0  0  0  0  0  0  0  0  0  0  0  0
    2.7740   -5.5960    4.4210 O   0  0  0  0  0  0  0  0  0  0  0  0
    4.2170   -2.8390    5.2370 O   0  0  0  0  0  1  0  0  0  0  0  0
    3.3390   -3.2910    4.4240 C   0  0  0  0  0  0  0  0  0  0  0  0
    2.3290   -2.6200    4.0100 O   0  0  0  0  0  0  0  0  0  0  0  0
    9.5220   -4.6020    0.3480 O   0  0  0  0  0  0  0  0  0  0  0  0
    9.8840   -3.6470   -0.6530 C   0  0  0  0  0  2  0  0  0  0  0  0
    9.8410   -2.2190   -0.1430 C   0  0  0  0  0  0  0  0  0  0  0  0
    9.1990   -1.9780    1.0860 C   0  0  0  0  0  3  0  0  0  0  0  0
    9.1080   -0.6930    1.6060 C   0  0  0  0  0  3  0  0  0  0  0  0
    9.6690    0.3750    0.9130 C   0  0  0  0  0  3  0  0  0  0  0  0
   10.3120    0.1760   -0.3180 C   0  0  0  0  0  0  0  0  0  0  0  0
   10.8560    1.2710   -1.0100 C   0  0  0  0  0  3  0  0  0  0  0  0
   11.4790    1.1020   -2.2450 C   0  0  0  0  0  3  0  0  0  0  0  0
   11.5650   -0.1650   -2.8050 C   0  0  0  0  0  3  0  0  0  0  0  0
   11.0320   -1.2640   -2.1250 C   0  0  0  0  0  3  0  0  0  0  0  0
   10.3990   -1.1290   -0.8680 C   0  0  0  0  0  0  0  0  0  0  0  0
  1  6  1  0  0  0  0
  1  8  1  0  0  0  0
  2  1  2  0  0  0  0
  3  4  2  0  0  0  0
  3  2  1  0  0  0  0
  4  5  1  0  0  0  0
  5 15  1  0  0  0  0
  5  6  2  0  0  0  0
  7 10  1  0  0  0  0
  8  7  1  0  0  0  0
  8  9  2  0  0  0  0
 10 11  2  0  0  0  0
 10 13  1  0  0  0  0
 13 12  1  0  0  0  0
 14 13  2  0  0  0  0
 16 17  1  0  0  0  0
 16 15  1  0  0  0  0
 17 18  1  0  0  0  0
 18 19  2  0  0  0  0
 20 19  1  0  0  0  0
 21 20  2  0  0  0  0
 22 21  1  0  0  0  0
 23 22  2  0  0  0  0
 24 23  1  0  0  0  0
 24 25  2  0  0  0  0
 25 26  1  0  0  0  0
 26 21  1  0  0  0  0
 26 17  2  0  0  0  0
M  END
>  <minimizedAffinity>
-8.65742397

$$$$

 OpenBabel09122223323D

 26 28  0  0  0  0  0  0  0  0999 V2000
    7.2030   -5.2110    0.1820 C   0  0  0  0  0  0  0  0  0  0  0  0
    6.3730   -5.9590   -0.6620 C   0  0  0  0  0  3  0  0  0  0  0  0
    5.2050   -6.5360   -0.1650 C   0  0  0  0  0  3  0  0  0  0  0  0
    4.8690   -6.3760    1.1820 C   0  0  0  0  0  3  0  0  0  0  0  0
    5.6940   -5.6390    2.0400 C   0  0  0  0  0  0  0  0  0  0  0  0
    6.8430   -5.0380    1.5260 C   0  0  0  0  0  3  0  0  0  0  0  0
    9.0160   -3.8130    0.6360 C   0  0  0  0  0  2  0  0  0  0  0  0
    8.4800   -4.6100   -0.3260 C   0  0  0  0  0  0  0  0  0  0  0  0
    8.8550   -4.8820   -1.5020 O   0  0  0  0  0  0  0  0  0  0  0  0
   10.2710   -2.9710    0.6250 C   0  0  0  0  0  0  0  0  0  0  0  0
   11.2310   -3.0870    1.3840 O   0  0  0  0  0  0  0  0  0  0  0  0
   10.0300   -0.6490   -0.1230 O   0  0  0  0  0  1  0  0  0  0  0  0
   10.3820   -1.8360   -0.4460 C   0  0  0  0  0  0  0  0  0  0  0  0
   10.8260   -2.1650   -1.6020 O   0  0  0  0  0  0  0  0  0  0  0  0
    5.2610   -5.5680    3.3390 O   0  0  0  0  0  0  0  0  0  0  0  0
    4.2870   -4.5680    3.6490 C   0  0  0  0  0  2  0  0  0  0  0  0
    4.6910   -3.7010    4.8260 C   0  0  0  0  0  0  0  0  0  0  0  0
    6.0010   -3.8340    5.3220 C   0  0  0  0  0  3  0  0  0  0  0  0
    6.4340   -3.0830    6.4080 C   0  0  0  0  0  3  0  0  0  0  0  0
    5.5700   -2.1760    7.0110 C   0  0  0  0  0  3  0  0  0  0  0  0
    4.2550   -2.0190    6.5490 C   0  0  0  0  0  0  0  0  0  0  0  0
    3.3910   -1.1100    7.1840 C   0  0  0  0  0  3  0  0  0  0  0  0
    2.0740   -0.9540    6.7590 C   0  0  0  0  0  3  0  0  0  0  0  0
    1.6010   -1.7060    5.6930 C   0  0  0  0  0  3  0  0  0  0  0  0
    2.4500   -2.6120    5.0490 C   0  0  0  0  0  3  0  0  0  0  0  0
    3.7930   -2.7900    5.4510 C   0  0  0  0  0  0  0  0  0  0  0  0
  1  6  1  0  0  0  0
  2  3  1  0  0  0  0
  2  1  2  0  0  0  0
  3  4  2  0  0  0  0
  4  5  1  0  0  0  0
  5 15  1  0  0  0  0
  6  5  2  0  0  0  0
  8  1  1  0  0  0  0
  8  7  1  0  0  0  0
  9  8  2  0  0  0  0
 10  7  1  0  0  0  0
 10 11  2  0  0  0  0
 13 12  1  0  0  0  0
 13 10  1  0  0  0  0
 14 13  2  0  0  0  0
 15 16  1  0  0  0  0
 16 17  1  0  0  0  0
 17 18  2  0  0  0  0
 17 26  1  0  0  0  0
 18 19  1  0  0  0  0
 19 20  2  0  0  0  0
 21 20  1  0  0  0  0
 21 22  1  0  0  0  0
 23 22  2  0  0  0  0
 24 23  1  0  0  0  0
 25 26  1  0  0  0  0
 25 24  2  0  0  0  0
 26 21  2  0  0  0  0
M  END
>  <minimizedAffinity>
-8.60960865

$$$$

 OpenBabel09122223323D

 26 28  0  0  0  0  0  0  0  0999 V2000
    6.9080   -5.4030    0.3850 C   0  0  0  0  0  0  0  0  0  0  0  0
    6.0990   -6.2670   -0.3630 C   0  0  0  0  0  3  0  0  0  0  0  0
    4.9840   -6.8660    0.2230 C   0  0  0  0  0  3  0  0  0  0  0  0
    4.6820   -6.6120    1.5630 C   0  0  0  0  0  3  0  0  0  0  0  0
    5.4870   -5.7590    2.3260 C   0  0  0  0  0  0  0  0  0  0  0  0
    6.5810   -5.1390    1.7240 C   0  0  0  0  0  3  0  0  0  0  0  0
    8.7850   -4.0620    0.7360 C   0  0  0  0  0  2  0  0  0  0  0  0
    8.1300   -4.7750   -0.2170 C   0  0  0  0  0  0  0  0  0  0  0  0
    8.3650   -4.9570   -1.4450 O   0  0  0  0  0  0  0  0  0  0  0  0
   10.0450   -3.2310    0.6480 C   0  0  0  0  0  0  0  0  0  0  0  0
   10.5540   -2.5840    1.5610 O   0  0  0  0  0  0  0  0  0  0  0  0
   11.6200   -4.1030   -1.0140 O   0  0  0  0  0  1  0  0  0  0  0  0
   10.7900   -3.1740   -0.7260 C   0  0  0  0  0  0  0  0  0  0  0  0
   10.5200   -2.1860   -1.4960 O   0  0  0  0  0  0  0  0  0  0  0  0
    5.0930   -5.6040    3.6300 O   0  0  0  0  0  0  0  0  0  0  0  0
    5.5050   -4.4090    4.2990 C   0  0  0  0  0  2  0  0  0  0  0  0
    4.3350   -3.5660    4.7680 C   0  0  0  0  0  0  0  0  0  0  0  0
    3.1220   -3.6720    4.0620 C   0  0  0  0  0  3  0  0  0  0  0  0
    2.0140   -2.9180    4.4270 C   0  0  0  0  0  3  0  0  0  0  0  0
    2.0920   -2.0540    5.5130 C   0  0  0  0  0  3  0  0  0  0  0  0
    3.2840   -1.9160    6.2400 C   0  0  0  0  0  0  0  0  0  0  0  0
    3.3480   -1.0240    7.3230 C   0  0  0  0  0  3  0  0  0  0  0  0
    4.5270   -0.8530    8.0450 C   0  0  0  0  0  3  0  0  0  0  0  0
    5.6610   -1.5720    7.6920 C   0  0  0  0  0  3  0  0  0  0  0  0
    5.6110   -2.4670    6.6180 C   0  0  0  0  0  3  0  0  0  0  0  0
    4.4290   -2.6690    5.8690 C   0  0  0  0  0  0  0  0  0  0  0  0
  1  6  1  0  0  0  0
  2  3  1  0  0  0  0
  2  1  2  0  0  0  0
  3  4  2  0  0  0  0
  4  5  1  0  0  0  0
  5 15  1  0  0  0  0
  6  5  2  0  0  0  0
  8  1  1  0  0  0  0
  8  7  1  0  0  0  0
  9  8  2  0  0  0  0
 10  7  1  0  0  0  0
 10 11  2  0  0  0  0
 12 13  1  0  0  0  0
 13 10  1  0  0  0  0
 14 13  2  0  0  0  0
 15 16  1  0  0  0  0
 16 17  1  0  0  0  0
 17 26  1  0  0  0  0
 18 19  1  0  0  0  0
 18 17  2  0  0  0  0
 19 20  2  0  0  0  0
 20 21  1  0  0  0  0
 21 22  1  0  0  0  0
 22 23  2  0  0  0  0
 24 23  1  0  0  0  0
 25 24  2  0  0  0  0
 26 21  2  0  0  0  0
 26 25  1  0  0  0  0
M  END
>  <minimizedAffinity>
-8.38646317

$$$$

 OpenBabel09122223323D

 26 28  0  0  0  0  0  0  0  0999 V2000
    5.8270   -5.6880    1.4690 C   0  0  0  0  0  0  0  0  0  0  0  0
    5.1660   -6.0810    0.2990 C   0  0  0  0  0  3  0  0  0  0  0  0
    5.8240   -6.0260   -0.9300 C   0  0  0  0  0  3  0  0  0  0  0  0
    7.1420   -5.5660   -0.9930 C   0  0  0  0  0  3  0  0  0  0  0  0
    7.8120   -5.1610    0.1670 C   0  0  0  0  0  0  0  0  0  0  0  0
    7.1580   -5.2500    1.3950 C   0  0  0  0  0  3  0  0  0  0  0  0
    4.4020   -4.5680    2.9380 C   0  0  0  0  0  2  0  0  0  0  0  0
    5.1270   -5.7080    2.7950 C   0  0  0  0  0  0  0  0  0  0  0  0
    5.3040   -6.6970    3.5610 O   0  0  0  0  0  0  0  0  0  0  0  0
    3.5410   -4.0900    4.0850 C   0  0  0  0  0  0  0  0  0  0  0  0
    2.3420   -4.3150    4.2370 O   0  0  0  0  0  0  0  0  0  0  0  0
    5.4170   -3.4980    5.5450 O   0  0  0  0  0  0  0  0  0  0  0  0
    4.2170   -3.2240    5.1980 C   0  0  0  0  0  0  0  0  0  0  0  0
    3.5210   -2.2750    5.7040 O   0  0  0  0  0  1  0  0  0  0  0  0
    9.0950   -4.7180   -0.0300 O   0  0  0  0  0  0  0  0  0  0  0  0
    9.5550   -3.6550    0.8080 C   0  0  0  0  0  2  0  0  0  0  0  0
   10.0470   -2.4570    0.0180 C   0  0  0  0  0  0  0  0  0  0  0  0
   10.7470   -2.7000   -1.1790 C   0  0  0  0  0  3  0  0  0  0  0  0
   11.2390   -1.6510   -1.9440 C   0  0  0  0  0  3  0  0  0  0  0  0
   11.0310   -0.3380   -1.5350 C   0  0  0  0  0  3  0  0  0  0  0  0
   10.3430   -0.0550   -0.3460 C   0  0  0  0  0  0  0  0  0  0  0  0
   10.1590    1.2780    0.0590 C   0  0  0  0  0  3  0  0  0  0  0  0
    9.5000    1.5830    1.2480 C   0  0  0  0  0  3  0  0  0  0  0  0
    9.0170    0.5580    2.0490 C   0  0  0  0  0  3  0  0  0  0  0  0
    9.1890   -0.7730    1.6570 C   0  0  0  0  0  3  0  0  0  0  0  0
    9.8470   -1.1170    0.4540 C   0  0  0  0  0  0  0  0  0  0  0  0
  1  8  1  0  0  0  0
  2  1  2  0  0  0  0
  3  2  1  0  0  0  0
  4  3  2  0  0  0  0
  4  5  1  0  0  0  0
  5  6  2  0  0  0  0
  6  1  1  0  0  0  0
  7 10  1  0  0  0  0
  8  7  1  0  0  0  0
  8  9  2  0  0  0  0
 10 11  2  0  0  0  0
 10 13  1  0  0  0  0
 13 12  2  0  0  0  0
 13 14  1  0  0  0  0
 15  5  1  0  0  0  0
 15 16  1  0  0  0  0
 17 26  1  0  0  0  0
 17 16  1  0  0  0  0
 18 17  2  0  0  0  0
 19 20  2  0  0  0  0
 19 18  1  0  0  0  0
 20 21  1  0  0  0  0
 21 22  2  0  0  0  0
 21 26  1  0  0  0  0
 22 23  1  0  0  0  0
 23 24  2  0  0  0  0
 25 24  1  0  0  0  0
 26 25  2  0  0  0  0
M  END
>  <minimizedAffinity>
-8.35065651

$$$$

 OpenBabel09122223323D

 26 28  0  0  0  0  0  0  0  0999 V2000
    6.8960   -5.7230   -0.0190 C   0  0  0  0  0  0  0  0  0  0  0  0
    6.0510   -6.3650   -0.9340 C   0  0  0  0  0  3  0  0  0  0  0  0
    5.0250   -7.1930   -0.4780 C   0  0  0  0  0  3  0  0  0  0  0  0
    4.8490   -7.3910    0.8940 C   0  0  0  0  0  3  0  0  0  0  0  0
    5.6920   -6.7650    1.8190 C   0  0  0  0  0  0  0  0  0  0  0  0
    6.6930   -5.9130    1.3560 C   0  0  0  0  0  3  0  0  0  0  0  0
    8.5300   -4.1640    0.5660 C   0  0  0  0  0  2  0  0  0  0  0  0
    8.0240   -4.8550   -0.4900 C   0  0  0  0  0  0  0  0  0  0  0  0
    8.3240   -4.8590   -1.7170 O   0  0  0  0  0  0  0  0  0  0  0  0
    9.6490   -3.1500    0.6290 C   0  0  0  0  0  0  0  0  0  0  0  0
    9.7240   -2.1980    1.4030 O   0  0  0  0  0  0  0  0  0  0  0  0
   11.0100   -2.4060   -1.2690 O   0  0  0  0  0  0  0  0  0  0  0  0
   10.8370   -3.3060   -0.3770 C   0  0  0  0  0  0  0  0  0  0  0  0
   11.5810   -4.3410   -0.2460 O   0  0  0  0  0  1  0  0  0  0  0  0
    5.4230   -7.0510    3.1330 O   0  0  0  0  0  0  0  0  0  0  0  0
    4.0620   -7.3200    3.4780 C   0  0  0  0  0  2  0  0  0  0  0  0
    3.6480   -6.6650    4.7820 C   0  0  0  0  0  0  0  0  0  0  0  0
    3.4670   -7.4920    5.9060 C   0  0  0  0  0  3  0  0  0  0  0  0
    3.0740   -6.9610    7.1280 C   0  0  0  0  0  3  0  0  0  0  0  0
    2.8660   -5.5920    7.2530 C   0  0  0  0  0  3  0  0  0  0  0  0
    3.0300   -4.7350    6.1550 C   0  0  0  0  0  0  0  0  0  0  0  0
    2.7970   -3.3570    6.2980 C   0  0  0  0  0  3  0  0  0  0  0  0
    2.9310   -2.4900    5.2160 C   0  0  0  0  0  3  0  0  0  0  0  0
    3.2990   -2.9900    3.9750 C   0  0  0  0  0  3  0  0  0  0  0  0
    3.5380   -4.3580    3.8180 C   0  0  0  0  0  3  0  0  0  0  0  0
    3.4170   -5.2650    4.8960 C   0  0  0  0  0  0  0  0  0  0  0  0
  1  6  1  0  0  0  0
  2  3  1  0  0  0  0
  2  1  2  0  0  0  0
  3  4  2  0  0  0  0
  4  5  1  0  0  0  0
  5 15  1  0  0  0  0
  6  5  2  0  0  0  0
  7 10  1  0  0  0  0
  8  1  1  0  0  0  0
  8  7  1  0  0  0  0
  9  8  2  0  0  0  0
 10 11  2  0  0  0  0
 12 13  2  0  0  0  0
 13 14  1  0  0  0  0
 13 10  1  0  0  0  0
 15 16  1  0  0  0  0
 16 17  1  0  0  0  0
 17 26  2  0  0  0  0
 17 18  1  0  0  0  0
 18 19  2  0  0  0  0
 19 20  1  0  0  0  0
 21 22  1  0  0  0  0
 21 20  2  0  0  0  0
 23 22  2  0  0  0  0
 24 23  1  0  0  0  0
 25 24  2  0  0  0  0
 25 26  1  0  0  0  0
 26 21  1  0  0  0  0
M  END
>  <minimizedAffinity>
-8.01356602

$$$$

 OpenBabel09122223323D

 26 28  0  0  0  0  0  0  0  0999 V2000
    7.0920   -5.5730    0.0690 C   0  0  0  0  0  0  0  0  0  0  0  0
    6.1890   -6.0360   -0.8960 C   0  0  0  0  0  3  0  0  0  0  0  0
    5.0880   -6.8040   -0.5150 C   0  0  0  0  0  3  0  0  0  0  0  0
    4.8940   -7.1200    0.8320 C   0  0  0  0  0  3  0  0  0  0  0  0
    5.7930   -6.6730    1.8060 C   0  0  0  0  0  0  0  0  0  0  0  0
    6.8720   -5.8780    1.4210 C   0  0  0  0  0  3  0  0  0  0  0  0
    8.7290   -4.0530    0.7450 C   0  0  0  0  0  2  0  0  0  0  0  0
    8.2990   -4.7740   -0.3240 C   0  0  0  0  0  0  0  0  0  0  0  0
    8.7170   -4.8490   -1.5140 O   0  0  0  0  0  0  0  0  0  0  0  0
    9.8800   -3.0830    0.8760 C   0  0  0  0  0  0  0  0  0  0  0  0
   10.0400   -2.2630    1.7780 O   0  0  0  0  0  0  0  0  0  0  0  0
   11.7950   -4.0940   -0.2700 O   0  0  0  0  0  1  0  0  0  0  0  0
   10.9860   -3.1050   -0.2300 C   0  0  0  0  0  0  0  0  0  0  0  0
   11.0160   -2.1170   -1.0460 O   0  0  0  0  0  0  0  0  0  0  0  0
    5.4990   -7.0620    3.0870 O   0  0  0  0  0  0  0  0  0  0  0  0
    4.1430   -6.9160    3.5200 C   0  0  0  0  0  2  0  0  0  0  0  0
    3.8420   -5.5250    4.0450 C   0  0  0  0  0  0  0  0  0  0  0  0
    4.0100   -4.4390    3.1660 C   0  0  0  0  0  3  0  0  0  0  0  0
    3.7680   -3.1370    3.5840 C   0  0  0  0  0  3  0  0  0  0  0  0
    3.3400   -2.8960    4.8860 C   0  0  0  0  0  3  0  0  0  0  0  0
    3.1660   -3.9520    5.7930 C   0  0  0  0  0  0  0  0  0  0  0  0
    2.7510   -3.6850    7.1090 C   0  0  0  0  0  3  0  0  0  0  0  0
    2.5940   -4.7140    8.0350 C   0  0  0  0  0  3  0  0  0  0  0  0
    2.8520   -6.0250    7.6570 C   0  0  0  0  0  3  0  0  0  0  0  0
    3.2620   -6.3060    6.3500 C   0  0  0  0  0  3  0  0  0  0  0  0
    3.4250   -5.2860    5.3840 C   0  0  0  0  0  0  0  0  0  0  0  0
  1  6  1  0  0  0  0
  2  3  1  0  0  0  0
  2  1  2  0  0  0  0
  3  4  2  0  0  0  0
  4  5  1  0  0  0  0
  5 15  1  0  0  0  0
  6  5  2  0  0  0  0
  7 10  1  0  0  0  0
  8  1  1  0  0  0  0
  8  7  1  0  0  0  0
  9  8  2  0  0  0  0
 10 11  2  0  0  0  0
 12 13  1  0  0  0  0
 13 10  1  0  0  0  0
 14 13  2  0  0  0  0
 15 16  1  0  0  0  0
 16 17  1  0  0  0  0
 17 26  1  0  0  0  0
 18 19  1  0  0  0  0
 18 17  2  0  0  0  0
 19 20  2  0  0  0  0
 20 21  1  0  0  0  0
 21 22  1  0  0  0  0
 22 23  2  0  0  0  0
 24 23  1  0  0  0  0
 25 24  2  0  0  0  0
 26 21  2  0  0  0  0
 26 25  1  0  0  0  0
M  END
>  <minimizedAffinity>
-8.00896549

$$$$

 OpenBabel09122223323D

 26 28  0  0  0  0  0  0  0  0999 V2000
    8.8150   -2.6050    3.2030 C   0  0  0  0  0  0  0  0  0  0  0  0
    9.4830   -2.9470    4.3850 C   0  0  0  0  0  3  0  0  0  0  0  0
   10.2010   -1.9800    5.0890 C   0  0  0  0  0  3  0  0  0  0  0  0
   10.2620   -0.6710    4.6060 C   0  0  0  0  0  3  0  0  0  0  0  0
    9.6080   -0.3170    3.4210 C   0  0  0  0  0  0  0  0  0  0  0  0
    8.8650   -1.2810    2.7410 C   0  0  0  0  0  3  0  0  0  0  0  0
    8.7290   -3.8860    1.2540 C   0  0  0  0  0  2  0  0  0  0  0  0
    8.0660   -3.6370    2.4140 C   0  0  0  0  0  0  0  0  0  0  0  0
    6.9840   -4.0930    2.8810 O   0  0  0  0  0  0  0  0  0  0  0  0
    8.3920   -4.8150    0.1100 C   0  0  0  0  0  0  0  0  0  0  0  0
    8.7800   -4.7080   -1.0520 O   0  0  0  0  0  0  0  0  0  0  0  0
    7.8140   -6.8710    1.3110 O   0  0  0  0  0  1  0  0  0  0  0  0
    7.4610   -6.0360    0.4080 C   0  0  0  0  0  0  0  0  0  0  0  0
    6.3840   -6.1320   -0.2780 O   0  0  0  0  0  0  0  0  0  0  0  0
    9.7550    0.9940    3.0480 O   0  0  0  0  0  0  0  0  0  0  0  0
    9.2020    1.3810    1.7870 C   0  0  0  0  0  2  0  0  0  0  0  0
   10.2280    2.0080    0.8640 C   0  0  0  0  0  0  0  0  0  0  0  0
   10.7290    3.2790    1.2020 C   0  0  0  0  0  3  0  0  0  0  0  0
   11.6600    3.9190    0.3940 C   0  0  0  0  0  3  0  0  0  0  0  0
   12.1180    3.2960   -0.7620 C   0  0  0  0  0  3  0  0  0  0  0  0
   11.6390    2.0320   -1.1360 C   0  0  0  0  0  0  0  0  0  0  0  0
   12.1010    1.4270   -2.3180 C   0  0  0  0  0  3  0  0  0  0  0  0
   11.6220    0.1830   -2.7220 C   0  0  0  0  0  3  0  0  0  0  0  0
   10.6730   -0.4740   -1.9510 C   0  0  0  0  0  3  0  0  0  0  0  0
   10.2070    0.1140   -0.7710 C   0  0  0  0  0  3  0  0  0  0  0  0
   10.6770    1.3720   -0.3280 C   0  0  0  0  0  0  0  0  0  0  0  0
  1  2  1  0  0  0  0
  2  3  2  0  0  0  0
  4  3  1  0  0  0  0
  5  4  2  0  0  0  0
  6  1  2  0  0  0  0
  6  5  1  0  0  0  0
  7  8  1  0  0  0  0
  8  9  2  0  0  0  0
  8  1  1  0  0  0  0
 10 13  1  0  0  0  0
 10  7  1  0  0  0  0
 11 10  2  0  0  0  0
 13 12  1  0  0  0  0
 14 13  2  0  0  0  0
 15  5  1  0  0  0  0
 16 15  1  0  0  0  0
 17 18  1  0  0  0  0
 17 16  1  0  0  0  0
 19 18  2  0  0  0  0
 20 19  1  0  0  0  0
 21 20  2  0  0  0  0
 21 26  1  0  0  0  0
 22 21  1  0  0  0  0
 23 22  2  0  0  0  0
 23 24  1  0  0  0  0
 24 25  2  0  0  0  0
 25 26  1  0  0  0  0
 26 17  2  0  0  0  0
M  END
>  <minimizedAffinity>
-7.78123283

$$$$

 OpenBabel09122223323D

 26 28  0  0  0  0  0  0  0  0999 V2000
    8.2270   -4.5070    0.3860 C   0  0  0  0  0  0  0  0  0  0  0  0
    7.7760   -4.8810   -0.8850 C   0  0  0  0  0  3  0  0  0  0  0  0
    6.7250   -5.7890   -1.0170 C   0  0  0  0  0  3  0  0  0  0  0  0
    6.1300   -6.3340    0.1240 C   0  0  0  0  0  3  0  0  0  0  0  0
    6.5760   -5.9760    1.4010 C   0  0  0  0  0  0  0  0  0  0  0  0
    7.6050   -5.0440    1.5240 C   0  0  0  0  0  3  0  0  0  0  0  0
   10.3100   -3.8150   -0.4050 C   0  0  0  0  0  2  0  0  0  0  0  0
    9.3770   -3.5580    0.5490 C   0  0  0  0  0  0  0  0  0  0  0  0
    9.3450   -2.7200    1.4940 O   0  0  0  0  0  0  0  0  0  0  0  0
   11.6510   -3.1670   -0.6660 C   0  0  0  0  0  0  0  0  0  0  0  0
   12.7320   -3.5190   -0.1990 O   0  0  0  0  0  0  0  0  0  0  0  0
   10.5900   -1.4710   -2.0820 O   0  0  0  0  0  0  0  0  0  0  0  0
   11.6920   -1.9270   -1.6200 C   0  0  0  0  0  0  0  0  0  0  0  0
   12.8440   -1.4330   -1.8850 O   0  0  0  0  0  1  0  0  0  0  0  0
    5.9200   -6.5900    2.4370 O   0  0  0  0  0  0  0  0  0  0  0  0
    4.4920   -6.6300    2.3730 C   0  0  0  0  0  2  0  0  0  0  0  0
    3.8380   -6.3680    3.7160 C   0  0  0  0  0  0  0  0  0  0  0  0
    3.5090   -7.4780    4.5160 C   0  0  0  0  0  3  0  0  0  0  0  0
    2.8940   -7.3120    5.7500 C   0  0  0  0  0  3  0  0  0  0  0  0
    2.6070   -6.0330    6.2150 C   0  0  0  0  0  3  0  0  0  0  0  0
    2.9140   -4.9020    5.4440 C   0  0  0  0  0  0  0  0  0  0  0  0
    2.6000   -3.6190    5.9230 C   0  0  0  0  0  3  0  0  0  0  0  0
    2.8740   -2.4820    5.1660 C   0  0  0  0  0  3  0  0  0  0  0  0
    3.4650   -2.6130    3.9170 C   0  0  0  0  0  3  0  0  0  0  0  0
    3.7880   -3.8830    3.4290 C   0  0  0  0  0  3  0  0  0  0  0  0
    3.5290   -5.0560    4.1740 C   0  0  0  0  0  0  0  0  0  0  0  0
  1  8  1  0  0  0  0
  1  6  1  0  0  0  0
  2  1  2  0  0  0  0
  3  2  1  0  0  0  0
  3  4  2  0  0  0  0
  4  5  1  0  0  0  0
  5  6  2  0  0  0  0
  5 15  1  0  0  0  0
  7  8  1  0  0  0  0
  8  9  2  0  0  0  0
 10  7  1  0  0  0  0
 10 11  2  0  0  0  0
 12 13  2  0  0  0  0
 13 10  1  0  0  0  0
 14 13  1  0  0  0  0
 16 15  1  0  0  0  0
 16 17  1  0  0  0  0
 17 26  2  0  0  0  0
 17 18  1  0  0  0  0
 18 19  2  0  0  0  0
 19 20  1  0  0  0  0
 21 22  1  0  0  0  0
 21 20  2  0  0  0  0
 23 22  2  0  0  0  0
 24 23  1  0  0  0  0
 25 24  2  0  0  0  0
 25 26  1  0  0  0  0
 26 21  1  0  0  0  0
M  END
>  <minimizedAffinity>
-7.773458

$$$$

 OpenBabel09122223323D

 26 28  0  0  0  0  0  0  0  0999 V2000
   10.9720    1.4690   -0.8590 C   0  0  0  0  0  0  0  0  0  0  0  0
   11.9710    1.7050   -1.8120 C   0  0  0  0  0  3  0  0  0  0  0  0
   12.3570    0.6900   -2.6880 C   0  0  0  0  0  3  0  0  0  0  0  0
   11.7530   -0.5670   -2.6060 C   0  0  0  0  0  3  0  0  0  0  0  0
   10.7600   -0.8200   -1.6530 C   0  0  0  0  0  0  0  0  0  0  0  0
   10.3570    0.2090   -0.8030 C   0  0  0  0  0  3  0  0  0  0  0  0
   11.2330    3.6840   -0.1740 C   0  0  0  0  0  2  0  0  0  0  0  0
   10.5660    2.5360    0.1130 C   0  0  0  0  0  0  0  0  0  0  0  0
    9.7350    2.2470    1.0210 O   0  0  0  0  0  0  0  0  0  0  0  0
   11.2030    5.0340    0.5060 C   0  0  0  0  0  0  0  0  0  0  0  0
   10.2230    5.5630    1.0270 O   0  0  0  0  0  0  0  0  0  0  0  0
   12.6920    6.6990    1.5130 O   0  0  0  0  0  1  0  0  0  0  0  0
   12.5330    5.8540    0.5670 C   0  0  0  0  0  0  0  0  0  0  0  0
   13.4020    5.6270   -0.3480 O   0  0  0  0  0  0  0  0  0  0  0  0
   10.2560   -2.0950   -1.6660 O   0  0  0  0  0  0  0  0  0  0  0  0
   10.7880   -3.0180   -0.7120 C   0  0  0  0  0  2  0  0  0  0  0  0
    9.8660   -3.2330    0.4720 C   0  0  0  0  0  0  0  0  0  0  0  0
   10.1730   -2.5700    1.6750 C   0  0  0  0  0  3  0  0  0  0  0  0
    9.3800   -2.7340    2.8040 C   0  0  0  0  0  3  0  0  0  0  0  0
    8.2570   -3.5530    2.7490 C   0  0  0  0  0  3  0  0  0  0  0  0
    7.9210   -4.2350    1.5700 C   0  0  0  0  0  0  0  0  0  0  0  0
    6.7930   -5.0720    1.5410 C   0  0  0  0  0  3  0  0  0  0  0  0
    6.4520   -5.7770    0.3890 C   0  0  0  0  0  3  0  0  0  0  0  0
    7.2360   -5.6560   -0.7500 C   0  0  0  0  0  3  0  0  0  0  0  0
    8.3600   -4.8240   -0.7370 C   0  0  0  0  0  3  0  0  0  0  0  0
    8.7300   -4.0890    0.4130 C   0  0  0  0  0  0  0  0  0  0  0  0
  1  6  1  0  0  0  0
  1  8  1  0  0  0  0
  2  1  2  0  0  0  0
  3  4  2  0  0  0  0
  3  2  1  0  0  0  0
  4  5  1  0  0  0  0
  5  6  2  0  0  0  0
  7  8  1  0  0  0  0
  7 10  1  0  0  0  0
  8  9  2  0  0  0  0
 10 13  1  0  0  0  0
 10 11  2  0  0  0  0
 13 12  1  0  0  0  0
 14 13  2  0  0  0  0
 15  5  1  0  0  0  0
 15 16  1  0  0  0  0
 16 17  1  0  0  0  0
 17 18  1  0  0  0  0
 18 19  2  0  0  0  0
 20 19  1  0  0  0  0
 21 20  2  0  0  0  0
 22 21  1  0  0  0  0
 23 22  2  0  0  0  0
 24 25  2  0  0  0  0
 24 23  1  0  0  0  0
 25 26  1  0  0  0  0
 26 17  2  0  0  0  0
 26 21  1  0  0  0  0
M  END
>  <minimizedAffinity>
-7.77224064

$$$$
