
 OpenBabel09132204463D

 26 28  0  0  0  0  0  0  0  0999 V2000
    6.8960   -5.7230   -0.0190 C   0  0  0  0  0  0  0  0  0  0  0  0
    6.0510   -6.3650   -0.9340 C   0  0  0  0  0  3  0  0  0  0  0  0
    5.0250   -7.1930   -0.4780 C   0  0  0  0  0  3  0  0  0  0  0  0
    4.8490   -7.3910    0.8940 C   0  0  0  0  0  3  0  0  0  0  0  0
    5.6920   -6.7650    1.8190 C   0  0  0  0  0  0  0  0  0  0  0  0
    6.6930   -5.9130    1.3560 C   0  0  0  0  0  3  0  0  0  0  0  0
    8.5300   -4.1640    0.5660 C   0  0  0  0  0  2  0  0  0  0  0  0
    8.0240   -4.8550   -0.4900 C   0  0  0  0  0  0  0  0  0  0  0  0
    8.3240   -4.8590   -1.7170 O   0  0  0  0  0  0  0  0  0  0  0  0
    9.6490   -3.1500    0.6290 C   0  0  0  0  0  0  0  0  0  0  0  0
    9.7240   -2.1980    1.4030 O   0  0  0  0  0  0  0  0  0  0  0  0
   11.0100   -2.4060   -1.2690 O   0  0  0  0  0  0  0  0  0  0  0  0
   10.8370   -3.3060   -0.3770 C   0  0  0  0  0  0  0  0  0  0  0  0
   11.5810   -4.3410   -0.2460 O   0  0  0  0  0  1  0  0  0  0  0  0
    5.4230   -7.0510    3.1330 O   0  0  0  0  0  0  0  0  0  0  0  0
    4.0620   -7.3200    3.4780 C   0  0  0  0  0  2  0  0  0  0  0  0
    3.6480   -6.6650    4.7820 C   0  0  0  0  0  0  0  0  0  0  0  0
    3.4670   -7.4920    5.9060 C   0  0  0  0  0  3  0  0  0  0  0  0
    3.0740   -6.9610    7.1280 C   0  0  0  0  0  3  0  0  0  0  0  0
    2.8660   -5.5920    7.2530 C   0  0  0  0  0  3  0  0  0  0  0  0
    3.0300   -4.7350    6.1550 C   0  0  0  0  0  0  0  0  0  0  0  0
    2.7970   -3.3570    6.2980 C   0  0  0  0  0  3  0  0  0  0  0  0
    2.9310   -2.4900    5.2160 C   0  0  0  0  0  3  0  0  0  0  0  0
    3.2990   -2.9900    3.9750 C   0  0  0  0  0  3  0  0  0  0  0  0
    3.5380   -4.3580    3.8180 C   0  0  0  0  0  3  0  0  0  0  0  0
    3.4170   -5.2650    4.8960 C   0  0  0  0  0  0  0  0  0  0  0  0
  1  6  1  0  0  0  0
  2  3  1  0  0  0  0
  2  1  2  0  0  0  0
  3  4  2  0  0  0  0
  4  5  1  0  0  0  0
  5 15  1  0  0  0  0
  6  5  2  0  0  0  0
  7 10  1  0  0  0  0
  8  1  1  0  0  0  0
  8  7  1  0  0  0  0
  9  8  2  0  0  0  0
 10 11  2  0  0  0  0
 12 13  2  0  0  0  0
 13 14  1  0  0  0  0
 13 10  1  0  0  0  0
 15 16  1  0  0  0  0
 16 17  1  0  0  0  0
 17 26  2  0  0  0  0
 17 18  1  0  0  0  0
 18 19  2  0  0  0  0
 19 20  1  0  0  0  0
 21 22  1  0  0  0  0
 21 20  2  0  0  0  0
 23 22  2  0  0  0  0
 24 23  1  0  0  0  0
 25 24  2  0  0  0  0
 25 26  1  0  0  0  0
 26 21  1  0  0  0  0
M  END
>  <minimizedAffinity>
-8.01356602

$$$$
