
 OpenBabel09132204463D

 26 28  0  0  0  0  0  0  0  0999 V2000
    7.2030   -5.2110    0.1820 C   0  0  0  0  0  0  0  0  0  0  0  0
    6.3730   -5.9590   -0.6620 C   0  0  0  0  0  3  0  0  0  0  0  0
    5.2050   -6.5360   -0.1650 C   0  0  0  0  0  3  0  0  0  0  0  0
    4.8690   -6.3760    1.1820 C   0  0  0  0  0  3  0  0  0  0  0  0
    5.6940   -5.6390    2.0400 C   0  0  0  0  0  0  0  0  0  0  0  0
    6.8430   -5.0380    1.5260 C   0  0  0  0  0  3  0  0  0  0  0  0
    9.0160   -3.8130    0.6360 C   0  0  0  0  0  2  0  0  0  0  0  0
    8.4800   -4.6100   -0.3260 C   0  0  0  0  0  0  0  0  0  0  0  0
    8.8550   -4.8820   -1.5020 O   0  0  0  0  0  0  0  0  0  0  0  0
   10.2710   -2.9710    0.6250 C   0  0  0  0  0  0  0  0  0  0  0  0
   11.2310   -3.0870    1.3840 O   0  0  0  0  0  0  0  0  0  0  0  0
   10.0300   -0.6490   -0.1230 O   0  0  0  0  0  1  0  0  0  0  0  0
   10.3820   -1.8360   -0.4460 C   0  0  0  0  0  0  0  0  0  0  0  0
   10.8260   -2.1650   -1.6020 O   0  0  0  0  0  0  0  0  0  0  0  0
    5.2610   -5.5680    3.3390 O   0  0  0  0  0  0  0  0  0  0  0  0
    4.2870   -4.5680    3.6490 C   0  0  0  0  0  2  0  0  0  0  0  0
    4.6910   -3.7010    4.8260 C   0  0  0  0  0  0  0  0  0  0  0  0
    6.0010   -3.8340    5.3220 C   0  0  0  0  0  3  0  0  0  0  0  0
    6.4340   -3.0830    6.4080 C   0  0  0  0  0  3  0  0  0  0  0  0
    5.5700   -2.1760    7.0110 C   0  0  0  0  0  3  0  0  0  0  0  0
    4.2550   -2.0190    6.5490 C   0  0  0  0  0  0  0  0  0  0  0  0
    3.3910   -1.1100    7.1840 C   0  0  0  0  0  3  0  0  0  0  0  0
    2.0740   -0.9540    6.7590 C   0  0  0  0  0  3  0  0  0  0  0  0
    1.6010   -1.7060    5.6930 C   0  0  0  0  0  3  0  0  0  0  0  0
    2.4500   -2.6120    5.0490 C   0  0  0  0  0  3  0  0  0  0  0  0
    3.7930   -2.7900    5.4510 C   0  0  0  0  0  0  0  0  0  0  0  0
  1  6  1  0  0  0  0
  2  3  1  0  0  0  0
  2  1  2  0  0  0  0
  3  4  2  0  0  0  0
  4  5  1  0  0  0  0
  5 15  1  0  0  0  0
  6  5  2  0  0  0  0
  8  1  1  0  0  0  0
  8  7  1  0  0  0  0
  9  8  2  0  0  0  0
 10  7  1  0  0  0  0
 10 11  2  0  0  0  0
 13 12  1  0  0  0  0
 13 10  1  0  0  0  0
 14 13  2  0  0  0  0
 15 16  1  0  0  0  0
 16 17  1  0  0  0  0
 17 18  2  0  0  0  0
 17 26  1  0  0  0  0
 18 19  1  0  0  0  0
 19 20  2  0  0  0  0
 21 20  1  0  0  0  0
 21 22  1  0  0  0  0
 23 22  2  0  0  0  0
 24 23  1  0  0  0  0
 25 26  1  0  0  0  0
 25 24  2  0  0  0  0
 26 21  2  0  0  0  0
M  END
>  <minimizedAffinity>
-8.60960865

$$$$
