
 OpenBabel09132204463D

 35 38  0  0  0  0  0  0  0  0999 V2000
    4.1570   -7.8370    3.7630 C   0  0  0  0  0  0  0  0  0  0  0  0
    4.5820   -6.7920    2.9420 C   0  0  0  0  0  0  0  0  0  0  0  0
    4.1130   -5.5730    3.5450 C   0  0  0  0  0  0  0  0  0  0  0  0
    4.2390   -4.2050    3.2160 C   0  0  0  0  0  3  0  0  0  0  0  0
    3.6550   -3.2310    4.0380 C   0  0  0  0  0  3  0  0  0  0  0  0
    2.9600   -3.5840    5.1970 C   0  0  0  0  0  0  0  0  0  0  0  0
    2.8620   -4.9390    5.5410 C   0  0  0  0  0  3  0  0  0  0  0  0
    3.3980   -5.9170    4.6900 C   0  0  0  0  0  0  0  0  0  0  0  0
    3.3270   -7.2920    4.7300 N   0  0  0  0  0  0  0  0  0  0  0  0
    4.0260  -11.4020    2.5740 C   0  0  0  0  0  0  0  0  0  0  0  0
    4.9220  -12.0120    3.4620 C   0  0  0  0  0  3  0  0  0  0  0  0
    5.5630  -11.2550    4.4450 C   0  0  0  0  0  3  0  0  0  0  0  0
    5.3150   -9.8850    4.5450 C   0  0  0  0  0  3  0  0  0  0  0  0
    4.4200   -9.2680    3.6670 C   0  0  0  0  0  0  0  0  0  0  0  0
    3.7800  -10.0280    2.6910 C   0  0  0  0  0  3  0  0  0  0  0  0
    3.3410  -12.1810    1.4900 C   0  0  0  0  0  2  0  0  0  0  0  0
    4.3010  -14.3880    0.7540 C   0  0  0  0  0  1  0  0  0  0  0  0
    4.3220  -12.8970    0.5810 N   0  0  0  0  0  4  0  0  0  0  0  0
    4.1560  -12.4890   -0.8480 C   0  0  0  0  0  1  0  0  0  0  0  0
    5.2560  -12.5820    0.8790 H   0  0  0  0  0  0  0  0  0  0  0  0
    5.3760   -6.8360    1.6500 C   0  0  0  0  0  3  0  0  0  0  0  0
    4.5290   -6.8440    0.3690 C   0  0  0  0  0  2  0  0  0  0  0  0
    5.4100   -6.9460   -0.8770 C   0  0  0  0  0  2  0  0  0  0  0  0
    6.4490   -5.8270   -0.9180 C   0  0  0  0  0  2  0  0  0  0  0  0
    7.2940   -5.8000    0.3510 C   0  0  0  0  0  2  0  0  0  0  0  0
    6.4280   -5.7140    1.6060 C   0  0  0  0  0  2  0  0  0  0  0  0
    2.2880   -2.5370    6.0640 C   0  0  0  0  0  0  0  0  0  0  0  0
    2.5120   -2.5820    7.3110 O   0  0  0  0  0  1  0  0  0  0  0  0
    1.5670   -1.6770    5.4580 O   0  0  0  0  0  0  0  0  0  0  0  0
    2.4730   -8.0400    5.6540 C   0  0  0  0  0  2  0  0  0  0  0  0
    1.0470   -8.1970    5.1220 C   0  0  0  0  0  0  0  0  0  0  0  0
    0.8660   -8.7210    4.0130 O   0  0  0  0  0  0  0  0  0  0  0  0
   -0.0340   -7.7520    5.8740 N   0  0  0  0  0  0  0  0  0  0  0  0
    0.0490   -7.1220    7.1880 C   0  0  0  0  0  1  0  0  0  0  0  0
   -1.3630   -7.7660    5.2850 C   0  0  0  0  0  1  0  0  0  0  0  0
  1  9  1  0  0  0  0
  2  3  1  0  0  0  0
  2  1  2  0  0  0  0
  3  8  1  0  0  0  0
  4  3  2  0  0  0  0
  4  5  1  0  0  0  0
  5  6  2  0  0  0  0
  6  7  1  0  0  0  0
  6 27  1  0  0  0  0
  8  9  1  0  0  0  0
  8  7  2  0  0  0  0
  9 30  1  0  0  0  0
 10 15  2  0  0  0  0
 10 11  1  0  0  0  0
 11 12  2  0  0  0  0
 12 13  1  0  0  0  0
 14  1  1  0  0  0  0
 14 13  2  0  0  0  0
 15 14  1  0  0  0  0
 16 10  1  0  0  0  0
 18 17  1  0  0  0  0
 18 20  1  0  0  0  0
 18 16  1  0  0  0  0
 19 18  1  0  0  0  0
 21  2  1  0  0  0  0
 22 21  1  0  0  0  0
 23 22  1  0  0  0  0
 24 23  1  0  0  0  0
 24 25  1  0  0  0  0
 25 26  1  0  0  0  0
 26 21  1  0  0  0  0
 27 28  1  0  0  0  0
 29 27  2  0  0  0  0
 31 30  1  0  0  0  0
 31 33  1  0  0  0  0
 32 31  2  0  0  0  0
 33 34  1  0  0  0  0
 35 33  1  0  0  0  0
M  END
>  <minimizedAffinity>
-7.79059982

$$$$
