
 OpenBabel09132204463D

 35 38  0  0  0  0  0  0  0  0999 V2000
    4.1450   -7.6700    3.5800 C   0  0  0  0  0  0  0  0  0  0  0  0
    4.6300   -6.6190    2.8020 C   0  0  0  0  0  0  0  0  0  0  0  0
    4.1610   -5.4030    3.4090 C   0  0  0  0  0  0  0  0  0  0  0  0
    4.3330   -4.0320    3.1170 C   0  0  0  0  0  3  0  0  0  0  0  0
    3.7340   -3.0610    3.9320 C   0  0  0  0  0  3  0  0  0  0  0  0
    2.9790   -3.4220    5.0510 C   0  0  0  0  0  0  0  0  0  0  0  0
    2.8350   -4.7820    5.3600 C   0  0  0  0  0  3  0  0  0  0  0  0
    3.3880   -5.7530    4.5130 C   0  0  0  0  0  0  0  0  0  0  0  0
    3.2840   -7.1270    4.5200 N   0  0  0  0  0  0  0  0  0  0  0  0
    3.8930  -11.2290    2.3880 C   0  0  0  0  0  0  0  0  0  0  0  0
    4.8280  -11.8560    3.2230 C   0  0  0  0  0  3  0  0  0  0  0  0
    5.5330  -11.1130    4.1710 C   0  0  0  0  0  3  0  0  0  0  0  0
    5.3120   -9.7390    4.2900 C   0  0  0  0  0  3  0  0  0  0  0  0
    4.3810   -9.1050    3.4650 C   0  0  0  0  0  0  0  0  0  0  0  0
    3.6760   -9.8510    2.5220 C   0  0  0  0  0  3  0  0  0  0  0  0
    3.1380  -11.9920    1.3400 C   0  0  0  0  0  2  0  0  0  0  0  0
    3.5410  -14.4350    0.8870 C   0  0  0  0  0  1  0  0  0  0  0  0
    3.9990  -13.0260    0.6410 N   0  0  0  0  0  4  0  0  0  0  0  0
    4.1550  -12.7270   -0.8160 C   0  0  0  0  0  1  0  0  0  0  0  0
    4.9320  -12.9440    1.0680 H   0  0  0  0  0  0  0  0  0  0  0  0
    5.4800   -6.6550    1.5460 C   0  0  0  0  0  3  0  0  0  0  0  0
    4.6950   -6.5780    0.2290 C   0  0  0  0  0  2  0  0  0  0  0  0
    5.6280   -6.6770   -0.9790 C   0  0  0  0  0  2  0  0  0  0  0  0
    6.7170   -5.6070   -0.9310 C   0  0  0  0  0  2  0  0  0  0  0  0
    7.5030   -5.6640    0.3750 C   0  0  0  0  0  2  0  0  0  0  0  0
    6.5830   -5.5820    1.5920 C   0  0  0  0  0  2  0  0  0  0  0  0
    2.2920   -2.3770    5.9090 C   0  0  0  0  0  0  0  0  0  0  0  0
    1.4990   -1.5760    5.3290 O   0  0  0  0  0  0  0  0  0  0  0  0
    2.5520   -2.4080    7.1560 O   0  0  0  0  0  1  0  0  0  0  0  0
    2.3730   -7.8740    5.3880 C   0  0  0  0  0  2  0  0  0  0  0  0
    3.0820   -8.4370    6.6210 C   0  0  0  0  0  0  0  0  0  0  0  0
    3.7700   -7.6830    7.3250 O   0  0  0  0  0  0  0  0  0  0  0  0
    2.9590   -9.7830    6.9460 N   0  0  0  0  0  0  0  0  0  0  0  0
    2.1810  -10.7680    6.2010 C   0  0  0  0  0  1  0  0  0  0  0  0
    3.7640  -10.3300    8.0260 C   0  0  0  0  0  1  0  0  0  0  0  0
  1  9  1  0  0  0  0
  2  3  1  0  0  0  0
  2  1  2  0  0  0  0
  3  8  1  0  0  0  0
  4  3  2  0  0  0  0
  4  5  1  0  0  0  0
  5  6  2  0  0  0  0
  6  7  1  0  0  0  0
  6 27  1  0  0  0  0
  8  9  1  0  0  0  0
  8  7  2  0  0  0  0
  9 30  1  0  0  0  0
 10 15  2  0  0  0  0
 10 11  1  0  0  0  0
 11 12  2  0  0  0  0
 12 13  1  0  0  0  0
 14  1  1  0  0  0  0
 14 13  2  0  0  0  0
 15 14  1  0  0  0  0
 16 10  1  0  0  0  0
 18 17  1  0  0  0  0
 18 20  1  0  0  0  0
 18 16  1  0  0  0  0
 19 18  1  0  0  0  0
 21 26  1  0  0  0  0
 21  2  1  0  0  0  0
 22 21  1  0  0  0  0
 23 24  1  0  0  0  0
 23 22  1  0  0  0  0
 24 25  1  0  0  0  0
 25 26  1  0  0  0  0
 27 29  1  0  0  0  0
 28 27  2  0  0  0  0
 30 31  1  0  0  0  0
 31 33  1  0  0  0  0
 31 32  2  0  0  0  0
 33 35  1  0  0  0  0
 34 33  1  0  0  0  0
M  END
>  <minimizedAffinity>
-7.84689665

$$$$
