
 OpenBabel09132204463D

 35 38  0  0  0  0  0  0  0  0999 V2000
    2.3910   -7.4600    4.7730 C   0  0  0  0  0  0  0  0  0  0  0  0
    2.8150   -8.5160    3.9670 C   0  0  0  0  0  0  0  0  0  0  0  0
    3.8840   -8.0110    3.1490 C   0  0  0  0  0  0  0  0  0  0  0  0
    4.7260   -8.5850    2.1700 C   0  0  0  0  0  3  0  0  0  0  0  0
    5.7070   -7.8040    1.5440 C   0  0  0  0  0  3  0  0  0  0  0  0
    5.8870   -6.4600    1.8830 C   0  0  0  0  0  0  0  0  0  0  0  0
    5.0740   -5.8980    2.8770 C   0  0  0  0  0  3  0  0  0  0  0  0
    4.0560   -6.6650    3.4630 C   0  0  0  0  0  0  0  0  0  0  0  0
    3.0590   -6.3220    4.3500 N   0  0  0  0  0  0  0  0  0  0  0  0
   -0.9380   -7.4710    6.5230 C   0  0  0  0  0  0  0  0  0  0  0  0
   -0.5350   -7.4050    7.8630 C   0  0  0  0  0  3  0  0  0  0  0  0
    0.8220   -7.3560    8.1870 C   0  0  0  0  0  3  0  0  0  0  0  0
    1.7840   -7.3750    7.1760 C   0  0  0  0  0  3  0  0  0  0  0  0
    1.3930   -7.4370    5.8360 C   0  0  0  0  0  0  0  0  0  0  0  0
    0.0370   -7.4810    5.5170 C   0  0  0  0  0  3  0  0  0  0  0  0
   -2.3870   -7.5510    6.1400 C   0  0  0  0  0  2  0  0  0  0  0  0
   -4.0960   -9.3020    6.7310 C   0  0  0  0  0  1  0  0  0  0  0  0
   -2.8570   -8.9800    5.9460 N   0  0  0  0  0  4  0  0  0  0  0  0
   -2.9970   -9.3260    4.4980 C   0  0  0  0  0  1  0  0  0  0  0  0
   -2.1070   -9.5720    6.3270 H   0  0  0  0  0  0  0  0  0  0  0  0
    2.3040   -9.9420    3.8900 C   0  0  0  0  0  3  0  0  0  0  0  0
    1.8130  -10.3820    2.5040 C   0  0  0  0  0  2  0  0  0  0  0  0
    1.2670  -11.8110    2.5360 C   0  0  0  0  0  2  0  0  0  0  0  0
    2.3020  -12.7910    3.0830 C   0  0  0  0  0  2  0  0  0  0  0  0
    2.8070  -12.3650    4.4580 C   0  0  0  0  0  2  0  0  0  0  0  0
    3.3420  -10.9340    4.4460 C   0  0  0  0  0  2  0  0  0  0  0  0
    6.9160   -5.6000    1.1760 C   0  0  0  0  0  0  0  0  0  0  0  0
    7.0870   -5.7960   -0.0650 O   0  0  0  0  0  0  0  0  0  0  0  0
    7.5110   -4.7270    1.8890 O   0  0  0  0  0  1  0  0  0  0  0  0
    2.7570   -4.9460    4.7490 C   0  0  0  0  0  2  0  0  0  0  0  0
    3.6870   -4.4520    5.8600 C   0  0  0  0  0  0  0  0  0  0  0  0
    4.5330   -5.2230    6.3350 O   0  0  0  0  0  0  0  0  0  0  0  0
    3.5800   -3.1490    6.3330 N   0  0  0  0  0  0  0  0  0  0  0  0
    2.6290   -2.1480    5.8570 C   0  0  0  0  0  1  0  0  0  0  0  0
    4.3610   -2.7480    7.4920 C   0  0  0  0  0  1  0  0  0  0  0  0
  1 14  1  0  0  0  0
  2  1  2  0  0  0  0
  3  8  1  0  0  0  0
  3  2  1  0  0  0  0
  4  3  2  0  0  0  0
  5  6  2  0  0  0  0
  5  4  1  0  0  0  0
  6  7  1  0  0  0  0
  7  8  2  0  0  0  0
  8  9  1  0  0  0  0
  9 30  1  0  0  0  0
  9  1  1  0  0  0  0
 10 11  1  0  0  0  0
 11 12  2  0  0  0  0
 13 12  1  0  0  0  0
 14 13  2  0  0  0  0
 15 14  1  0  0  0  0
 15 10  2  0  0  0  0
 16 10  1  0  0  0  0
 18 16  1  0  0  0  0
 18 20  1  0  0  0  0
 18 17  1  0  0  0  0
 19 18  1  0  0  0  0
 21  2  1  0  0  0  0
 21 26  1  0  0  0  0
 22 23  1  0  0  0  0
 22 21  1  0  0  0  0
 23 24  1  0  0  0  0
 24 25  1  0  0  0  0
 26 25  1  0  0  0  0
 27  6  1  0  0  0  0
 27 29  1  0  0  0  0
 28 27  2  0  0  0  0
 30 31  1  0  0  0  0
 31 33  1  0  0  0  0
 31 32  2  0  0  0  0
 33 35  1  0  0  0  0
 34 33  1  0  0  0  0
M  END
>  <minimizedAffinity>
-6.93195677

$$$$
