
 OpenBabel09132204463D

 35 38  0  0  0  0  0  0  0  0999 V2000
    2.8790   -7.1500    4.8500 C   0  0  0  0  0  0  0  0  0  0  0  0
    3.3190   -5.8420    4.6480 C   0  0  0  0  0  0  0  0  0  0  0  0
    3.9720   -5.8170    3.3680 C   0  0  0  0  0  0  0  0  0  0  0  0
    4.5900   -4.8030    2.6020 C   0  0  0  0  0  3  0  0  0  0  0  0
    5.1410   -5.1080    1.3500 C   0  0  0  0  0  3  0  0  0  0  0  0
    5.0780   -6.4020    0.8270 C   0  0  0  0  0  0  0  0  0  0  0  0
    4.4370   -7.4020    1.5720 C   0  0  0  0  0  3  0  0  0  0  0  0
    3.9340   -7.1080    2.8490 C   0  0  0  0  0  0  0  0  0  0  0  0
    3.3860   -7.9220    3.8160 N   0  0  0  0  0  0  0  0  0  0  0  0
   -0.0540   -8.4370    6.8220 C   0  0  0  0  0  0  0  0  0  0  0  0
    0.5730   -8.8090    8.0190 C   0  0  0  0  0  3  0  0  0  0  0  0
    1.9500   -8.6360    8.1750 C   0  0  0  0  0  3  0  0  0  0  0  0
    2.7090   -8.0930    7.1370 C   0  0  0  0  0  3  0  0  0  0  0  0
    2.0940   -7.7160    5.9410 C   0  0  0  0  0  0  0  0  0  0  0  0
    0.7190   -7.8860    5.7910 C   0  0  0  0  0  3  0  0  0  0  0  0
   -1.5260   -8.6330    6.6110 C   0  0  0  0  0  2  0  0  0  0  0  0
   -2.6830   -8.4690    4.3820 C   0  0  0  0  0  1  0  0  0  0  0  0
   -2.0850   -7.7190    5.5380 N   0  0  0  0  0  4  0  0  0  0  0  0
   -3.0280   -6.7070    6.1060 C   0  0  0  0  0  1  0  0  0  0  0  0
   -1.2770   -7.2030    5.1650 H   0  0  0  0  0  0  0  0  0  0  0  0
    3.1880   -4.6270    5.5460 C   0  0  0  0  0  3  0  0  0  0  0  0
    4.4960   -4.1590    6.2000 C   0  0  0  0  0  2  0  0  0  0  0  0
    4.2580   -2.9660    7.1270 C   0  0  0  0  0  2  0  0  0  0  0  0
    3.5740   -1.8160    6.3920 C   0  0  0  0  0  2  0  0  0  0  0  0
    2.2760   -2.2650    5.7290 C   0  0  0  0  0  2  0  0  0  0  0  0
    2.4950   -3.4660    4.8110 C   0  0  0  0  0  2  0  0  0  0  0  0
    5.7140   -6.7470   -0.5050 C   0  0  0  0  0  0  0  0  0  0  0  0
    5.4360   -7.8770   -1.0080 O   0  0  0  0  0  1  0  0  0  0  0  0
    6.4620   -5.8550   -1.0250 O   0  0  0  0  0  0  0  0  0  0  0  0
    3.3780   -9.3840    3.7470 C   0  0  0  0  0  2  0  0  0  0  0  0
    4.5600  -10.0030    4.4950 C   0  0  0  0  0  0  0  0  0  0  0  0
    5.7110   -9.6190    4.2400 O   0  0  0  0  0  0  0  0  0  0  0  0
    4.3450  -10.9900    5.4500 N   0  0  0  0  0  0  0  0  0  0  0  0
    3.0430  -11.5250    5.8390 C   0  0  0  0  0  1  0  0  0  0  0  0
    5.4860  -11.6750    6.0340 C   0  0  0  0  0  1  0  0  0  0  0  0
  1 14  1  0  0  0  0
  2  1  2  0  0  0  0
  2 21  1  0  0  0  0
  3  2  1  0  0  0  0
  4  3  2  0  0  0  0
  5  4  1  0  0  0  0
  6  5  2  0  0  0  0
  6  7  1  0  0  0  0
  7  8  2  0  0  0  0
  8  3  1  0  0  0  0
  8  9  1  0  0  0  0
  9  1  1  0  0  0  0
 10 11  1  0  0  0  0
 11 12  2  0  0  0  0
 13 12  1  0  0  0  0
 14 13  2  0  0  0  0
 15 14  1  0  0  0  0
 15 10  2  0  0  0  0
 16 10  1  0  0  0  0
 17 18  1  0  0  0  0
 18 19  1  0  0  0  0
 18 16  1  0  0  0  0
 20 18  1  0  0  0  0
 21 22  1  0  0  0  0
 22 23  1  0  0  0  0
 24 23  1  0  0  0  0
 25 24  1  0  0  0  0
 26 21  1  0  0  0  0
 26 25  1  0  0  0  0
 27  6  1  0  0  0  0
 28 27  1  0  0  0  0
 29 27  2  0  0  0  0
 30  9  1  0  0  0  0
 30 31  1  0  0  0  0
 31 33  1  0  0  0  0
 32 31  2  0  0  0  0
 33 34  1  0  0  0  0
 33 35  1  0  0  0  0
M  END
>  <minimizedAffinity>
-7.55961275

$$$$
