REMARK  Name = 
REMARK  10 active torsions:
REMARK  status: ('A' for Active; 'I' for Inactive)
REMARK    1  A    between atoms: C_1  and  C_2
REMARK    2  A    between atoms: C_2  and  C_3
REMARK    3  A    between atoms: C_2  and  C_4
REMARK    4  A    between atoms: C_4  and  C_5
REMARK    5  A    between atoms: C_5  and  N_6
REMARK    6  A    between atoms: C_9  and  C_10
REMARK    7  A    between atoms: C_17  and  N_18
REMARK    8  A    between atoms: N_18  and  S_19
REMARK    9  A    between atoms: S_19  and  C_20
REMARK   10  A    between atoms: C_27  and  O_28
REMARK                            x       y       z     vdW  Elec       q    Type
REMARK                         _______ _______ _______ _____ _____    ______ ____
ROOT
ATOM      1  C   UNL     1      -2.022  -2.698  -2.058  0.00  0.00    +0.308 C 
ATOM      2  N   UNL     1      -2.142  -3.181  -0.844  0.00  0.00    -0.131 N 
ATOM      3  S   UNL     1      -3.520  -3.429  -0.064  0.00  0.00    +0.141 S 
ATOM      4  O   UNL     1      -3.950  -4.801  -0.248  0.00  0.00    -0.129 OA
ATOM      5  O   UNL     1      -3.407  -2.887   1.275  0.00  0.00    -0.129 OA
ATOM      6  C   UNL     1      -4.722  -2.445  -0.892  0.00  0.00    +0.176 A 
ATOM      7  C   UNL     1      -5.912  -2.111  -0.240  0.00  0.00    +0.059 A 
ATOM      8  C   UNL     1      -6.833  -1.311  -0.906  0.00  0.00    +0.050 A 
ATOM      9  C   UNL     1      -6.570  -0.865  -2.202  0.00  0.00    +0.028 A 
ATOM     10  C   UNL     1      -5.375  -1.218  -2.839  0.00  0.00    +0.053 A 
ATOM     11  C   UNL     1      -4.424  -1.996  -2.174  0.00  0.00    +0.148 A 
ATOM     12  N   UNL     1      -3.174  -2.234  -2.738  0.00  0.00    -0.200 N 
ATOM     13  H   UNL     1      -1.296  -3.459  -0.356  0.00  0.00    +0.339 HD
ATOM     14  H   UNL     1      -2.999  -1.891  -3.684  0.00  0.00    +0.298 HD
ENDROOT
BRANCH   1  18
ATOM     15  N   UNL     1       1.788  -2.709  -2.355  0.00  0.00    -0.292 N 
ATOM     16  C   UNL     1       0.525  -2.921  -1.853  0.00  0.00    +0.271 A 
ATOM     17  O   UNL     1       0.310  -3.370  -0.722  0.00  0.00    -0.267 OA
ATOM     18  C   UNL     1      -0.659  -2.571  -2.699  0.00  0.00    +0.170 A 
ATOM     19  C   UNL     1      -0.448  -2.123  -3.951  0.00  0.00    +0.148 A 
ATOM     20  C   UNL     1       0.914  -1.892  -4.464  0.00  0.00    +0.060 A 
ATOM     21  C   UNL     1       1.180  -1.320  -5.718  0.00  0.00    +0.016 A 
ATOM     22  C   UNL     1       2.494  -1.105  -6.126  0.00  0.00    +0.021 A 
ATOM     23  C   UNL     1       3.510  -1.453  -5.261  0.00  0.00    +0.113 A 
ATOM     24  N   UNL     1       3.293  -1.982  -4.041  0.00  0.00    -0.237 NA
ATOM     25  C   UNL     1       2.013  -2.190  -3.651  0.00  0.00    +0.147 A 
BRANCH  19  26
ATOM     26  O   UNL     1      -1.515  -1.858  -4.798  0.00  0.00    -0.505 OA
ATOM     27  H   UNL     1      -1.238  -2.033  -5.717  0.00  0.00    +0.292 HD
ENDBRANCH  19  26
BRANCH  15  28
ATOM     28  C   UNL     1       2.943  -2.928  -1.478  0.00  0.00    +0.127 C 
BRANCH  28  29
ATOM     29  C   UNL     1       3.251  -1.668  -0.657  0.00  0.00    +0.025 C 
BRANCH  29  31
ATOM     30  C   UNL     1       5.664  -2.246  -0.089  0.00  0.00    +0.007 C 
ATOM     31  C   UNL     1       4.281  -1.897   0.461  0.00  0.00    -0.016 C 
ATOM     32  C   UNL     1       4.372  -0.651   1.346  0.00  0.00    +0.007 C 
ENDBRANCH  29  31
ENDBRANCH  28  29
ENDBRANCH  15  28
ENDBRANCH   1  18
BRANCH   8  33
ATOM     33  N   UNL     1      -7.977  -0.818  -0.214  0.00  0.00    -0.221 N 
ATOM     34  H   UNL     1      -8.421  -1.487   0.421  0.00  0.00    +0.173 HD
BRANCH  33  35
ATOM     35  S   UNL     1      -7.743   0.633   0.652  0.00  0.00    +0.040 S 
ATOM     36  C   UNL     1      -8.738   1.755  -0.304  0.00  0.00    +0.218 C 
ATOM     37  O   UNL     1      -8.399   0.424   1.925  0.00  0.00    -0.155 OA
ATOM     38  O   UNL     1      -6.361   1.043   0.565  0.00  0.00    -0.155 OA
ENDBRANCH  33  35
ENDBRANCH   8  33
TORSDOF 7
