@<TRIPOS>MOLECULE
44608614
 80 85 0 0 0
SMALL
GASTEIGER

@<TRIPOS>ATOM
      1 S          -6.0843    0.6362   -1.0418 S.O2    1  UNL1        0.1138
      2 O           6.6226   -3.1749   -0.3689 O.3     1  UNL1       -0.4951
      3 O          -1.0845   -4.0937   -0.2879 O.2     1  UNL1       -0.2703
      4 O          -4.2965    2.8981    0.2290 O.2     1  UNL1       -0.2686
      5 O          -6.4616    0.3671   -2.4180 O.2     1  UNL1       -0.1379
      6 O          -6.7789    1.6587   -0.2826 O.2     1  UNL1       -0.1379
      7 N           0.7710   -0.2380   -0.9127 N.ar    1  UNL1       -0.3350
      8 N          -1.1381   -2.5683    1.4794 N.am    1  UNL1       -0.3008
      9 N          -4.3921    0.9228   -1.0300 N.am    1  UNL1       -0.1714
     10 N          -6.1452   -0.8610   -0.1506 N.3     1  UNL1       -0.1668
     11 C           3.0820    2.4035    0.2345 C.3     1  UNL1       -0.0133
     12 C           3.2308    3.6324   -0.6794 C.3     1  UNL1       -0.0461
     13 C           2.9149    2.8273    1.7042 C.3     1  UNL1       -0.0461
     14 C           1.9568    1.4924   -0.2214 C.ar    1  UNL1       -0.0111
     15 C           4.3716    4.5373   -0.2171 C.3     1  UNL1       -0.0525
     16 C           4.0569    3.7357    2.1567 C.3     1  UNL1       -0.0525
     17 C           4.2078    4.9485    1.2431 C.3     1  UNL1       -0.0530
     18 C           2.0460    0.1449   -0.5398 C.ar    1  UNL1        0.0544
     19 C           0.5884    1.8842   -0.2705 C.ar    1  UNL1        0.0039
     20 C          -0.1386    0.7710   -0.6826 C.ar    1  UNL1        0.0508
     21 C           3.2046   -0.7735   -0.5048 C.ar    1  UNL1        0.0062
     22 C           0.4397   -1.5843   -1.3479 C.3     1  UNL1        0.0538
     23 C          -0.1076    3.0698    0.0363 C.ar    1  UNL1       -0.0516
     24 C          -1.5413    0.7801   -0.7676 C.ar    1  UNL1       -0.0254
     25 C           3.1034   -2.1377   -0.1136 C.ar    1  UNL1       -0.0120
     26 C           0.6488   -2.5268   -0.2077 C.2     1  UNL1        0.0346
     27 C          -2.2281    1.9475   -0.4094 C.ar    1  UNL1        0.0402
     28 C           1.8512   -2.8004    0.3221 C.2     1  UNL1       -0.0440
     29 C          -1.5097    3.0856   -0.0282 C.ar    1  UNL1       -0.0489
     30 C           4.4692   -0.2611   -0.8499 C.ar    1  UNL1       -0.0486
     31 C           4.2691   -2.9234   -0.0644 C.ar    1  UNL1       -0.0122
     32 C          -0.5803   -3.1629    0.3415 C.2     1  UNL1        0.2441
     33 C           5.6092   -1.0642   -0.8093 C.ar    1  UNL1       -0.0193
     34 C           5.5099   -2.3926   -0.4150 C.ar    1  UNL1        0.1207
     35 C          -3.7182    1.9985   -0.3666 C.2     1  UNL1        0.2639
     36 C          -2.5391   -2.8606    1.8136 C.3     1  UNL1        0.0147
     37 C          -3.4799   -1.7978    1.2312 C.3     1  UNL1       -0.0359
     38 C          -4.9162   -1.9579    1.7315 C.3     1  UNL1       -0.0371
     39 C          -5.8096   -0.7866    1.3108 C.3     1  UNL1        0.0215
     40 C          -0.4976   -1.5270    2.2882 C.3     1  UNL1        0.0034
     41 C          -7.3661   -1.6818   -0.3955 C.3     1  UNL1        0.0102
     42 C           7.8594   -2.5669   -0.7388 C.3     1  UNL1        0.0788
     43 H           4.0361    1.8815    0.2239 H       1  UNL1        0.0350
     44 H           3.4265    3.3069   -1.7089 H       1  UNL1        0.0271
     45 H           2.3129    4.2265   -0.7148 H       1  UNL1        0.0271
     46 H           2.8856    1.9386    2.3476 H       1  UNL1        0.0271
     47 H           1.9697    3.3546    1.8672 H       1  UNL1        0.0271
     48 H           5.3271    4.0135   -0.3441 H       1  UNL1        0.0265
     49 H           4.4123    5.4312   -0.8497 H       1  UNL1        0.0265
     50 H           4.9947    3.1666    2.1666 H       1  UNL1        0.0265
     51 H           3.8765    4.0691    3.1850 H       1  UNL1        0.0265
     52 H           5.0736    5.5417    1.5583 H       1  UNL1        0.0265
     53 H           3.3253    5.5922    1.3435 H       1  UNL1        0.0265
     54 H          -0.5882   -1.6077   -1.7196 H       1  UNL1        0.0543
     55 H           1.0825   -1.8274   -2.2026 H       1  UNL1        0.0543
     56 H           0.4036    3.9698    0.3623 H       1  UNL1        0.0624
     57 H          -2.0576   -0.1305   -1.0422 H       1  UNL1        0.0646
     58 H           1.9429   -3.5210    1.1311 H       1  UNL1        0.0629
     59 H          -2.0232    4.0047    0.2453 H       1  UNL1        0.0625
     60 H           4.5905    0.7356   -1.2640 H       1  UNL1        0.0625
     61 H           4.2148   -3.9657    0.2468 H       1  UNL1        0.0660
     62 H           6.5364   -0.5927   -1.1171 H       1  UNL1        0.0654
     63 H          -2.8154   -3.8444    1.4183 H       1  UNL1        0.0464
     64 H          -2.6265   -2.9109    2.9048 H       1  UNL1        0.0464
     65 H          -3.4551   -1.8503    0.1364 H       1  UNL1        0.0281
     66 H          -3.1225   -0.7993    1.5070 H       1  UNL1        0.0281
     67 H          -5.3261   -2.9120    1.3823 H       1  UNL1        0.0279
     68 H          -4.9045   -1.9961    2.8278 H       1  UNL1        0.0279
     69 H          -3.8583    0.3031   -1.6495 H       1  UNL1        0.1779
     70 H          -5.3086    0.1588    1.5444 H       1  UNL1        0.0444
     71 H          -6.7380   -0.8016    1.8944 H       1  UNL1        0.0444
     72 H          -0.7015   -1.7235    3.3450 H       1  UNL1        0.0429
     73 H           0.5827   -1.4954    2.1562 H       1  UNL1        0.0429
     74 H          -0.9134   -0.5545    2.0152 H       1  UNL1        0.0429
     75 H          -7.3089   -2.6280    0.1501 H       1  UNL1        0.0408
     76 H          -8.2606   -1.1416   -0.0717 H       1  UNL1        0.0408
     77 H          -7.4465   -1.9239   -1.4589 H       1  UNL1        0.0408
     78 H           7.8545   -2.2513   -1.7876 H       1  UNL1        0.0660
     79 H           8.1250   -1.7491   -0.0603 H       1  UNL1        0.0660
     80 H           8.6376   -3.3306   -0.6386 H       1  UNL1        0.0660
@<TRIPOS>BOND
     1     1     5    2
     2     1     6    2
     3     1     9    1
     4     1    10    1
     5     2    34    1
     6     2    42    1
     7     3    32    2
     8     4    35    2
     9     7    18   ar
    10     7    20   ar
    11     7    22    1
    12     8    32   am
    13     8    36    1
    14     8    40    1
    15     9    35   am
    16     9    69    1
    17    10    39    1
    18    10    41    1
    19    11    12    1
    20    11    13    1
    21    11    14    1
    22    11    43    1
    23    12    15    1
    24    12    44    1
    25    12    45    1
    26    13    16    1
    27    13    46    1
    28    13    47    1
    29    14    18   ar
    30    14    19   ar
    31    15    17    1
    32    15    48    1
    33    15    49    1
    34    16    17    1
    35    16    50    1
    36    16    51    1
    37    17    52    1
    38    17    53    1
    39    18    21    1
    40    19    20   ar
    41    19    23   ar
    42    20    24   ar
    43    21    25   ar
    44    21    30   ar
    45    22    26    1
    46    22    54    1
    47    22    55    1
    48    23    29   ar
    49    23    56    1
    50    24    27   ar
    51    24    57    1
    52    25    28    1
    53    25    31   ar
    54    26    28    2
    55    26    32    1
    56    27    29   ar
    57    27    35    1
    58    28    58    1
    59    29    59    1
    60    30    33   ar
    61    30    60    1
    62    31    34   ar
    63    31    61    1
    64    33    34   ar
    65    33    62    1
    66    36    37    1
    67    36    63    1
    68    36    64    1
    69    37    38    1
    70    37    65    1
    71    37    66    1
    72    38    39    1
    73    38    67    1
    74    38    68    1
    75    39    70    1
    76    39    71    1
    77    40    72    1
    78    40    73    1
    79    40    74    1
    80    41    75    1
    81    41    76    1
    82    41    77    1
    83    42    78    1
    84    42    79    1
    85    42    80    1
