REMARK  2 active torsions:
REMARK  status: ('A' for Active; 'I' for Inactive)
REMARK    1  A    between atoms: O_2  and  C_34 
REMARK    2  A    between atoms: C_11  and  C_14 
ROOT
ATOM      1  S   UNL d   1      -6.084   0.636  -1.042  0.00  0.00     0.114 S 
ATOM      2  O   UNL d   1      -1.085  -4.094  -0.288  0.00  0.00    -0.270 OA
ATOM      3  O   UNL d   1      -4.296   2.898   0.229  0.00  0.00    -0.269 OA
ATOM      4  O   UNL d   1      -6.462   0.367  -2.418  0.00  0.00    -0.138 OA
ATOM      5  O   UNL d   1      -6.779   1.659  -0.283  0.00  0.00    -0.138 OA
ATOM      6  N   UNL d   1       0.771  -0.238  -0.913  0.00  0.00    -0.335 N 
ATOM      7  N   UNL d   1      -1.138  -2.568   1.479  0.00  0.00    -0.301 N 
ATOM      8  N   UNL d   1      -4.392   0.923  -1.030  0.00  0.00    -0.171 N 
ATOM      9  N   UNL d   1      -6.145  -0.861  -0.151  0.00  0.00    -0.167 NA
ATOM     10  C   UNL d   1       1.957   1.492  -0.221  0.00  0.00    -0.011 C 
ATOM     11  C   UNL d   1       2.046   0.145  -0.540  0.00  0.00     0.054 C 
ATOM     12  C   UNL d   1       0.588   1.884  -0.271  0.00  0.00     0.004 A 
ATOM     13  C   UNL d   1      -0.139   0.771  -0.683  0.00  0.00     0.051 A 
ATOM     14  C   UNL d   1       3.205  -0.773  -0.505  0.00  0.00     0.006 A 
ATOM     15  C   UNL d   1       0.440  -1.584  -1.348  0.00  0.00     0.162 C 
ATOM     16  C   UNL d   1      -0.108   3.070   0.036  0.00  0.00     0.011 A 
ATOM     17  C   UNL d   1      -1.541   0.780  -0.768  0.00  0.00     0.039 A 
ATOM     18  C   UNL d   1       3.103  -2.138  -0.114  0.00  0.00    -0.012 A 
ATOM     19  C   UNL d   1       0.649  -2.527  -0.208  0.00  0.00     0.035 C 
ATOM     20  C   UNL d   1      -2.228   1.948  -0.409  0.00  0.00     0.040 A 
ATOM     21  C   UNL d   1       1.851  -2.800   0.322  0.00  0.00     0.019 C 
ATOM     22  C   UNL d   1      -1.510   3.086  -0.028  0.00  0.00     0.014 A 
ATOM     23  C   UNL d   1       4.469  -0.261  -0.850  0.00  0.00     0.014 A 
ATOM     24  C   UNL d   1       4.269  -2.923  -0.064  0.00  0.00     0.054 A 
ATOM     25  C   UNL d   1      -0.580  -3.163   0.342  0.00  0.00     0.244 C 
ATOM     26  C   UNL d   1       5.609  -1.064  -0.809  0.00  0.00     0.046 A 
ATOM     27  C   UNL d   1       5.510  -2.393  -0.415  0.00  0.00     0.121 A 
ATOM     28  C   UNL d   1      -3.718   1.998  -0.367  0.00  0.00     0.264 C 
ATOM     29  C   UNL d   1      -2.539  -2.861   1.814  0.00  0.00     0.107 C 
ATOM     30  C   UNL d   1      -3.480  -1.798   1.231  0.00  0.00     0.020 C 
ATOM     31  C   UNL d   1      -4.916  -1.958   1.732  0.00  0.00     0.019 C 
ATOM     32  C   UNL d   1      -5.810  -0.787   1.311  0.00  0.00     0.110 C 
ATOM     33  C   UNL d   1      -0.498  -1.527   2.288  0.00  0.00     0.132 C 
ATOM     34  C   UNL d   1      -7.366  -1.682  -0.396  0.00  0.00     0.133 C 
ATOM     35  H   UNL d   1      -3.858   0.303  -1.649  0.00  0.00     0.178 HD
ENDROOT
BRANCH  10  36
ATOM     36  C   UNL d   1       3.082   2.404   0.234  0.00  0.00     0.022 C 
ATOM     37  C   UNL d   1       3.231   3.632  -0.679  0.00  0.00     0.008 C 
ATOM     38  C   UNL d   1       4.372   4.537  -0.217  0.00  0.00     0.001 C 
ATOM     39  C   UNL d   1       4.208   4.949   1.243  0.00  0.00     0.000 C 
ATOM     40  C   UNL d   1       4.057   3.736   2.157  0.00  0.00     0.001 C 
ATOM     41  C   UNL d   1       2.915   2.827   1.704  0.00  0.00     0.008 C 
ENDBRANCH  10  36
BRANCH  27  42
ATOM     42  O   UNL d   1       6.623  -3.175  -0.369  0.00  0.00    -0.495 OA
ATOM     43  C   UNL d   1       7.859  -2.567  -0.739  0.00  0.00     0.277 C 
ENDBRANCH  27  42
TORSDOF 2
