REMARK  Name = 
REMARK  7 active torsions:
REMARK  status: ('A' for Active; 'I' for Inactive)
REMARK    1  A    between atoms: C_1  and  C_2
REMARK    2  A    between atoms: C_5  and  C_6
REMARK    3  A    between atoms: N_8  and  CA_9
REMARK    4  A    between atoms: CA_9  and  C_25
REMARK    5  A    between atoms: C_10  and  C_11
REMARK    6  A    between atoms: C_14  and  O_15
REMARK    7  A    between atoms: O_15  and  C_16
REMARK                            x       y       z     vdW  Elec       q    Type
REMARK                         _______ _______ _______ _____ _____    ______ ____
ROOT
ATOM      1  CA  UNL     1      -3.383   2.291  -0.917  0.00  0.00    +0.057 C 
ATOM      2  C   UNL     1      -4.308   3.252  -1.123  0.00  0.00    +0.033 C 
ENDROOT
BRANCH   2   3
ATOM      3  C   UNL     1      -5.674   3.275  -0.594  0.00  0.00    -0.023 A 
ATOM      4  C   UNL     1      -6.042   4.253   0.332  0.00  0.00    +0.011 A 
ATOM      5  C   UNL     1      -7.346   4.288   0.835  0.00  0.00    +0.047 A 
ATOM      6  C   UNL     1      -8.293   3.349   0.417  0.00  0.00    +0.129 A 
ATOM      7  C   UNL     1      -7.928   2.373  -0.514  0.00  0.00    +0.047 A 
ATOM      8  C   UNL     1      -6.625   2.342  -1.022  0.00  0.00    +0.011 A 
BRANCH   6   9
ATOM      9  O   UNL     1      -9.541   3.487   0.992  0.00  0.00    -0.455 OA
BRANCH   9  10
ATOM     10  C   UNL     1     -10.504   2.563   0.674  0.00  0.00    +0.142 A 
ATOM     11  C   UNL     1     -11.304   2.795  -0.449  0.00  0.00    +0.047 A 
ATOM     12  C   UNL     1     -12.314   1.892  -0.783  0.00  0.00    +0.004 A 
ATOM     13  C   UNL     1     -12.535   0.769   0.015  0.00  0.00    +0.001 A 
ATOM     14  C   UNL     1     -11.755   0.551   1.153  0.00  0.00    +0.019 A 
ATOM     15  C   UNL     1     -10.743   1.454   1.490  0.00  0.00    +0.060 A 
ATOM     16 BR   UNL     1      -9.733   1.135   3.062  0.00  0.00    -0.046 Br
ENDBRANCH   9  10
ENDBRANCH   6   9
ENDBRANCH   2   3
BRANCH   1  19
ATOM     17  C   UNL     1      -2.870   0.108   0.235  0.00  0.00    +0.248 C 
ATOM     18  O   UNL     1      -3.402  -0.909   0.689  0.00  0.00    -0.270 OA
ATOM     19  N   UNL     1      -3.659   1.168  -0.150  0.00  0.00    -0.280 N 
ATOM     20  H   UNL     1      -4.620   1.042   0.134  0.00  0.00    +0.155 HD
BRANCH  17  25
ATOM     21  C   UNL     1       2.907   0.136   0.441  0.00  0.00    +0.044 C 
ATOM     22  C   UNL     1       1.410   0.147   0.364  0.00  0.00    -0.050 A 
ATOM     23  C   UNL     1       0.718  -0.950  -0.165  0.00  0.00    +0.004 A 
ATOM     24  C   UNL     1      -0.677  -0.939  -0.229  0.00  0.00    +0.013 A 
ATOM     25  C   UNL     1      -1.393   0.172   0.229  0.00  0.00    +0.037 A 
ATOM     26  C   UNL     1      -0.711   1.249   0.800  0.00  0.00    +0.013 A 
ATOM     27  C   UNL     1       0.685   1.239   0.858  0.00  0.00    +0.004 A 
ENDBRANCH  17  25
ENDBRANCH   1  19
BRANCH   1  28
ATOM     28  C   UNL     1      -2.055   2.554  -1.699  0.00  0.00    +0.086 C 
ATOM     29  O   UNL     1      -1.781   1.690  -2.581  0.00  0.00    -0.543 OA
ATOM     30  OXT UNL     1      -1.451   3.622  -1.384  0.00  0.00    -0.543 OA
ENDBRANCH   1  28
TORSDOF 6
