
 OpenBabel09132200183D

 30 32  0  0  0  0  0  0  0  0999 V2000
    2.7830   -2.0900    6.0890 C   0  0  0  0  0  0  0  0  0  0  0  0
    2.4900   -0.8900    5.5470 C   0  0  0  0  0  2  0  0  0  0  0  0
    1.3590   -0.5820    4.6680 C   0  0  0  0  0  0  0  0  0  0  0  0
    1.4320   -0.8960    3.3090 C   0  0  0  0  0  3  0  0  0  0  0  0
    0.3540   -0.6150    2.4650 C   0  0  0  0  0  3  0  0  0  0  0  0
   -0.8060   -0.0200    2.9700 C   0  0  0  0  0  0  0  0  0  0  0  0
   -0.8830    0.2890    4.3300 C   0  0  0  0  0  3  0  0  0  0  0  0
    0.1940    0.0020    5.1760 C   0  0  0  0  0  3  0  0  0  0  0  0
   -1.7950    0.2110    2.0340 O   0  0  0  0  0  0  0  0  0  0  0  0
   -3.0750   -0.1790    2.3370 C   0  0  0  0  0  0  0  0  0  0  0  0
   -3.2560   -1.3530    3.0750 C   0  0  0  0  0  3  0  0  0  0  0  0
   -4.5450   -1.7960    3.3740 C   0  0  0  0  0  3  0  0  0  0  0  0
   -5.6500   -1.0760    2.9200 C   0  0  0  0  0  3  0  0  0  0  0  0
   -5.4710    0.0810    2.1590 C   0  0  0  0  0  3  0  0  0  0  0  0
   -4.1810    0.5270    1.8580 C   0  0  0  0  0  0  0  0  0  0  0  0
   -3.9880    2.0840    0.7930 Br  0  0  0  0  0  0  0  0  0  0  0  0
    2.0680   -4.1740    4.8630 C   0  0  0  0  0  0  0  0  0  0  0  0
    1.1040   -4.9230    4.6840 O   0  0  0  0  0  0  0  0  0  0  0  0
    2.0010   -3.2100    5.8430 N   0  0  0  0  0  4  0  0  0  0  0  0
    1.1870   -3.3280    6.4300 H   0  0  0  0  0  0  0  0  0  0  0  0
    6.9950   -4.9020    1.9290 C   0  0  0  0  0  1  0  0  0  0  0  0
    5.7080   -4.7390    2.6790 C   0  0  0  0  0  0  0  0  0  0  0  0
    5.6510   -4.9890    4.0560 C   0  0  0  0  0  3  0  0  0  0  0  0
    4.4510   -4.8300    4.7520 C   0  0  0  0  0  3  0  0  0  0  0  0
    3.2950   -4.4250    4.0770 C   0  0  0  0  0  0  0  0  0  0  0  0
    3.3560   -4.1300    2.7130 C   0  0  0  0  0  3  0  0  0  0  0  0
    4.5560   -4.2960    2.0170 C   0  0  0  0  0  3  0  0  0  0  0  0
    4.1110   -2.0720    6.9150 C   0  0  0  0  0  0  0  0  0  0  0  0
    4.5890   -3.2140    7.1710 O   0  0  0  0  0  0  0  0  0  0  0  0
    4.5610   -0.9180    7.1780 O   0  0  0  0  0  1  0  0  0  0  0  0
  1 28  1  0  0  0  0
  2  1  1  0  0  0  0
  3  8  1  0  0  0  0
  3  2  1  0  0  0  0
  4  3  2  0  0  0  0
  5  6  2  0  0  0  0
  5  4  1  0  0  0  0
  6  7  1  0  0  0  0
  7  8  2  0  0  0  0
  9 10  1  0  0  0  0
  9  6  1  0  0  0  0
 10 11  1  0  0  0  0
 11 12  2  0  0  0  0
 13 12  1  0  0  0  0
 14 13  2  0  0  0  0
 15 14  1  0  0  0  0
 15 10  2  0  0  0  0
 16 15  1  0  0  0  0
 17 19  1  0  0  0  0
 18 17  2  0  0  0  0
 19  1  2  3  0  0  0
 19 20  1  0  0  0  0
 21 22  1  0  0  0  0
 22 23  1  0  0  0  0
 23 24  2  0  0  0  0
 25 24  1  0  0  0  0
 25 17  1  0  0  0  0
 26 25  2  0  0  0  0
 27 22  2  0  0  0  0
 27 26  1  0  0  0  0
 28 29  2  0  0  0  0
 28 30  1  0  0  0  0
M  END
>  <minimizedAffinity>
31.3602715

$$$$
