
 OpenBabel09122222393D

 39 44  0  0  1  0  0  0  0  0999 V2000
    9.3470   -2.4790    3.4800 C   0  0  0  0  0  0  0  0  0  0  0  0
    9.9810   -3.0460    4.5900 C   0  0  0  0  0  3  0  0  0  0  0  0
   10.5920   -2.2240    5.5410 C   0  0  0  0  0  3  0  0  0  0  0  0
   10.5980   -0.8310    5.3950 C   0  0  0  0  0  0  0  0  0  0  0  0
    9.9750   -0.2700    4.2850 C   0  0  0  0  0  3  0  0  0  0  0  0
    9.3500   -1.0910    3.3440 C   0  0  0  0  0  0  0  0  0  0  0  0
    8.7400   -0.5080    2.3010 F   0  0  0  0  0  0  0  0  0  0  0  0
    6.2180   -6.0700   -0.1400 C   0  0  0  0  0  0  0  0  0  0  0  0
    7.1660   -5.6800   -1.1000 C   0  0  0  0  0  3  0  0  0  0  0  0
    8.2170   -4.8030   -0.8010 C   0  0  0  0  0  3  0  0  0  0  0  0
    8.3000   -4.3160    0.5100 C   0  0  0  0  0  0  0  0  0  0  0  0
    7.3760   -4.6780    1.4870 C   0  0  0  0  0  0  0  0  0  0  0  0
    6.3310   -5.5600    1.1680 C   0  0  0  0  0  3  0  0  0  0  0  0
    7.6580   -4.0590    2.6790 N   0  0  0  0  0  0  0  0  0  0  0  0
    8.7360   -3.3330    2.4700 C   0  0  0  0  0  0  0  0  0  0  0  0
    9.1680   -3.4620    1.1600 N   0  0  0  0  0  0  0  0  0  0  0  0
   10.3230   -2.7820    0.5790 C   0  0  0  0  0  3  0  0  0  0  0  0
   11.4120   -3.7490    0.0880 C   0  0  0  0  0  2  0  0  0  0  0  0
   12.6150   -2.9920   -0.4730 C   0  0  0  0  0  2  0  0  0  0  0  0
   12.2030   -1.9990   -1.5560 C   0  0  0  0  0  2  0  0  0  0  0  0
   11.1390   -1.0270   -1.0540 C   0  0  0  0  0  2  0  0  0  0  0  0
    9.9210   -1.7630   -0.5000 C   0  0  0  0  0  2  0  0  0  0  0  0
    5.4060   -8.0480   -1.1860 O   0  0  0  0  0  0  0  0  0  0  0  0
    5.0940   -7.0180   -0.5070 C   0  0  0  0  0  0  0  0  0  0  0  0
    3.9240   -6.7160   -0.1140 O   0  0  0  0  0  1  0  0  0  0  0  0
   11.2710   -0.1760    6.3830 O   0  0  0  0  0  0  0  0  0  0  0  0
   11.4520    1.2550    6.4180 C   0  0  1  0  0  3  0  0  0  0  0  0
   10.2000    2.0410    6.7820 C   0  0  0  0  0  0  0  0  0  0  0  0
    9.4210    1.8000    7.9180 C   0  0  0  0  0  3  0  0  0  0  0  0
    8.2820    2.5660    8.1630 C   0  0  0  0  0  3  0  0  0  0  0  0
    7.9440    3.5530    7.2550 C   0  0  0  0  0  3  0  0  0  0  0  0
    8.6520    3.8120    6.1390 N   0  0  0  0  0  0  0  0  0  0  0  0
    9.7520    3.0520    5.9280 C   0  0  0  0  0  3  0  0  0  0  0  0
   12.7890    1.7080    6.9920 C   0  0  0  0  0  0  0  0  0  0  0  0
   13.3680    0.9950    8.0520 C   0  0  0  0  0  3  0  0  0  0  0  0
   14.5930    1.3940    8.5810 C   0  0  0  0  0  3  0  0  0  0  0  0
   15.2130    2.4980    8.0290 C   0  0  0  0  0  3  0  0  0  0  0  0
   14.6970    3.2100    7.0060 N   0  0  0  0  0  0  0  0  0  0  0  0
   13.5020    2.8060    6.5170 C   0  0  0  0  0  3  0  0  0  0  0  0
  1  2  1  0  0  0  0
  2  3  2  0  0  0  0
  4  3  1  0  0  0  0
  4 26  1  0  0  0  0
  5  4  2  0  0  0  0
  6  1  2  0  0  0  0
  6  5  1  0  0  0  0
  7  6  1  0  0  0  0
  8 13  1  0  0  0  0
  9 10  1  0  0  0  0
  9  8  2  0  0  0  0
 10 11  2  0  0  0  0
 11 16  1  0  0  0  0
 11 12  1  0  0  0  0
 12 14  1  0  0  0  0
 13 12  2  0  0  0  0
 15 14  2  0  0  0  0
 15  1  1  0  0  0  0
 16 15  1  0  0  0  0
 17 16  1  0  0  0  0
 18 17  1  0  0  0  0
 19 18  1  0  0  0  0
 20 21  1  0  0  0  0
 20 19  1  0  0  0  0
 21 22  1  0  0  0  0
 22 17  1  0  0  0  0
 23 24  2  0  0  0  0
 24  8  1  0  0  0  0
 24 25  1  0  0  0  0
 27 26  1  1  0  0  0
 27 28  1  0  0  0  0
 27 34  1  0  0  0  0
 28 29  1  0  0  0  0
 29 30  2  0  0  0  0
 31 30  1  0  0  0  0
 32 31  2  0  0  0  0
 33 32  1  0  0  0  0
 33 28  2  0  0  0  0
 34 35  1  0  0  0  0
 35 36  2  0  0  0  0
 37 36  1  0  0  0  0
 38 37  2  0  0  0  0
 39 34  2  0  0  0  0
 39 38  1  0  0  0  0
M  END
>  <minimizedAffinity>
-9.44748402

$$$$
