
 OpenBabel09122222393D

 39 44  0  0  1  0  0  0  0  0999 V2000
    9.4060   -1.8920    3.2810 C   0  0  0  0  0  0  0  0  0  0  0  0
    9.3300   -0.5380    2.9410 C   0  0  0  0  0  3  0  0  0  0  0  0
    9.8550    0.4290    3.8030 C   0  0  0  0  0  3  0  0  0  0  0  0
   10.4430    0.0690    5.0210 C   0  0  0  0  0  0  0  0  0  0  0  0
   10.5080   -1.2780    5.3630 C   0  0  0  0  0  3  0  0  0  0  0  0
   10.0000   -2.2450    4.4930 C   0  0  0  0  0  0  0  0  0  0  0  0
   10.1040   -3.5340    4.8490 F   0  0  0  0  0  0  0  0  0  0  0  0
    6.4340   -6.0690    0.1990 C   0  0  0  0  0  0  0  0  0  0  0  0
    7.3770   -5.7880   -0.8040 C   0  0  0  0  0  3  0  0  0  0  0  0
    8.3950   -4.8410   -0.6280 C   0  0  0  0  0  3  0  0  0  0  0  0
    8.4490   -4.1700    0.6000 C   0  0  0  0  0  0  0  0  0  0  0  0
    7.5290   -4.4200    1.6150 C   0  0  0  0  0  0  0  0  0  0  0  0
    6.5180   -5.3740    1.4200 C   0  0  0  0  0  3  0  0  0  0  0  0
    7.7780   -3.6280    2.7070 N   0  0  0  0  0  0  0  0  0  0  0  0
    8.8330   -2.9020    2.4010 C   0  0  0  0  0  0  0  0  0  0  0  0
    9.2820   -3.2010    1.1250 N   0  0  0  0  0  0  0  0  0  0  0  0
   10.4190   -2.5710    0.4570 C   0  0  0  0  0  3  0  0  0  0  0  0
   11.4820   -3.5790   -0.0090 C   0  0  0  0  0  2  0  0  0  0  0  0
   12.6680   -2.8710   -0.6630 C   0  0  0  0  0  2  0  0  0  0  0  0
   12.2220   -1.9480   -1.7920 C   0  0  0  0  0  2  0  0  0  0  0  0
   11.1840   -0.9360   -1.3170 C   0  0  0  0  0  2  0  0  0  0  0  0
    9.9830   -1.6220   -0.6710 C   0  0  0  0  0  2  0  0  0  0  0  0
    5.4230   -7.7880   -1.1010 O   0  0  0  0  0  0  0  0  0  0  0  0
    5.3470   -7.0990   -0.0350 C   0  0  0  0  0  0  0  0  0  0  0  0
    4.4380   -7.1970    0.8480 O   0  0  0  0  0  1  0  0  0  0  0  0
   10.8650    1.1300    5.7650 O   0  0  0  0  0  0  0  0  0  0  0  0
   11.9560    1.9940    5.3860 C   0  0  1  0  0  3  0  0  0  0  0  0
   11.5410    3.2160    4.5780 C   0  0  0  0  0  0  0  0  0  0  0  0
   11.9790    3.4880    3.2780 C   0  0  0  0  0  3  0  0  0  0  0  0
   11.5520    4.6410    2.6210 C   0  0  0  0  0  3  0  0  0  0  0  0
   10.7020    5.5030    3.2880 C   0  0  0  0  0  3  0  0  0  0  0  0
   10.2650    5.2940    4.5450 N   0  0  0  0  0  0  0  0  0  0  0  0
   10.6970    4.1670    5.1580 C   0  0  0  0  0  3  0  0  0  0  0  0
   13.0320    2.1580    6.4520 C   0  0  0  0  0  0  0  0  0  0  0  0
   12.9520    1.4180    7.6410 C   0  0  0  0  0  3  0  0  0  0  0  0
   13.9330    1.5530    8.6200 C   0  0  0  0  0  3  0  0  0  0  0  0
   14.9780    2.4240    8.3800 C   0  0  0  0  0  3  0  0  0  0  0  0
   15.1000    3.1520    7.2510 N   0  0  0  0  0  0  0  0  0  0  0  0
   14.1280    3.0070    6.3190 C   0  0  0  0  0  3  0  0  0  0  0  0
  1  6  1  0  0  0  0
  2  1  2  0  0  0  0
  2  3  1  0  0  0  0
  3  4  2  0  0  0  0
  4  5  1  0  0  0  0
  4 26  1  0  0  0  0
  6  7  1  0  0  0  0
  6  5  2  0  0  0  0
  8 13  1  0  0  0  0
  9 10  1  0  0  0  0
  9  8  2  0  0  0  0
 10 11  2  0  0  0  0
 11 16  1  0  0  0  0
 11 12  1  0  0  0  0
 12 14  1  0  0  0  0
 13 12  2  0  0  0  0
 15 14  2  0  0  0  0
 15  1  1  0  0  0  0
 16 15  1  0  0  0  0
 17 16  1  0  0  0  0
 18 17  1  0  0  0  0
 19 18  1  0  0  0  0
 20 21  1  0  0  0  0
 20 19  1  0  0  0  0
 21 22  1  0  0  0  0
 22 17  1  0  0  0  0
 23 24  2  0  0  0  0
 24  8  1  0  0  0  0
 24 25  1  0  0  0  0
 27 26  1  1  0  0  0
 27 34  1  0  0  0  0
 28 33  1  0  0  0  0
 28 27  1  0  0  0  0
 29 28  2  0  0  0  0
 30 29  1  0  0  0  0
 30 31  2  0  0  0  0
 31 32  1  0  0  0  0
 32 33  2  0  0  0  0
 34 35  1  0  0  0  0
 35 36  2  0  0  0  0
 37 36  1  0  0  0  0
 38 37  2  0  0  0  0
 39 34  2  0  0  0  0
 39 38  1  0  0  0  0
M  END
>  <minimizedAffinity>
-8.72574711

$$$$
