REMARK  Name = 
REMARK  6 active torsions:
REMARK  status: ('A' for Active; 'I' for Inactive)
REMARK    1  A    between atoms: C_1  and  C_2
REMARK    2  A    between atoms: N_4  and  C_5
REMARK    3  A    between atoms: C_7  and  C_8
REMARK    4  A    between atoms: C_12  and  S_13
REMARK    5  A    between atoms: S_13  and  N_16
REMARK    6  A    between atoms: C_20  and  C_21
REMARK                            x       y       z     vdW  Elec       q    Type
REMARK                         _______ _______ _______ _____ _____    ______ ____
ROOT
ATOM      1  C   UNL     1       2.817   1.976   1.605  0.00  0.00    +0.060 A 
ATOM      2  C   UNL     1       3.496   0.892   2.181  0.00  0.00    +0.030 A 
ATOM      3  C   UNL     1       3.462   0.638   3.567  0.00  0.00    -0.030 A 
ATOM      4  C   UNL     1       4.218  -0.540   4.119  0.00  0.00    +0.045 C 
ATOM      5  C   UNL     1       2.747   1.509   4.396  0.00  0.00    +0.046 A 
ATOM      6 CL   UNL     1       2.666   1.268   6.104  0.00  0.00    -0.083 Cl
ATOM      7  C   UNL     1       2.088   2.609   3.857  0.00  0.00    +0.050 A 
ATOM      8  C   UNL     1       2.123   2.839   2.472  0.00  0.00    +0.128 A 
ENDROOT
BRANCH   1  12
ATOM      9  C   UNL     1       3.094  -0.055  -0.732  0.00  0.00    +0.109 C 
ATOM     10  C   UNL     1       3.146   1.443  -0.859  0.00  0.00    +0.214 C 
ATOM     11  O   UNL     1       3.380   1.952  -1.958  0.00  0.00    -0.276 OA
ATOM     12  N   UNL     1       2.888   2.240   0.219  0.00  0.00    -0.284 N 
ATOM     13  H   UNL     1       2.704   3.210  -0.063  0.00  0.00    +0.155 HD
ENDBRANCH   1  12
BRANCH   8  14
ATOM     14  S   UNL     1       1.232   4.266   1.850  0.00  0.00    +0.063 S 
ATOM     15  O   UNL     1       0.871   5.058   3.004  0.00  0.00    -0.153 OA
ATOM     16  O   UNL     1       2.063   4.787   0.783  0.00  0.00    -0.153 OA
BRANCH  14  17
ATOM     17  N   UNL     1      -0.126   3.507   1.183  0.00  0.00    -0.168 NA
ATOM     18  C   UNL     1      -1.072   2.848   2.114  0.00  0.00    +0.110 C 
ATOM     19  C   UNL     1      -2.340   2.625   1.292  0.00  0.00    +0.019 C 
ATOM     20  C   UNL     1      -2.165   3.443   0.016  0.00  0.00    +0.028 C 
ATOM     21  C   UNL     1      -0.984   4.372   0.296  0.00  0.00    +0.125 C 
BRANCH  21  22
ATOM     22  C   UNL     1      -1.478   5.716   0.909  0.00  0.00    +0.061 C 
ATOM     23  O   UNL     1      -0.937   6.751   0.426  0.00  0.00    -0.548 OA
ATOM     24  O   UNL     1      -2.383   5.621   1.790  0.00  0.00    -0.548 OA
ENDBRANCH  21  22
ENDBRANCH  14  17
ENDBRANCH   8  14
TORSDOF 4
