
 OpenBabel09132204463D

 24 25  0  0  1  0  0  0  0  0999 V2000
    4.5150   -1.7280    9.1980 C   0  0  0  0  0  0  0  0  0  0  0  0
    4.7770   -0.4840    9.7900 C   0  0  0  0  0  3  0  0  0  0  0  0
    5.9110    0.2820    9.4520 C   0  0  0  0  0  0  0  0  0  0  0  0
    6.1340    1.6070   10.1310 C   0  0  0  0  0  1  0  0  0  0  0  0
    6.8140   -0.2260    8.5140 C   0  0  0  0  0  0  0  0  0  0  0  0
    8.2300    0.6500    8.0550 Cl  0  0  0  0  0  0  0  0  0  0  0  0
    6.5960   -1.4710    7.9310 C   0  0  0  0  0  3  0  0  0  0  0  0
    5.4540   -2.2140    8.2710 C   0  0  0  0  0  0  0  0  0  0  0  0
    1.5430   -1.3400    8.3710 C   0  0  0  0  0  1  0  0  0  0  0  0
    2.0520   -2.3350    9.3780 C   0  0  0  0  0  0  0  0  0  0  0  0
    1.2490   -3.0340   10.0010 O   0  0  0  0  0  0  0  0  0  0  0  0
    3.3930   -2.5020    9.5710 N   0  0  0  0  0  0  0  0  0  0  0  0
    3.5970   -3.3710   10.0790 H   0  0  0  0  0  0  0  0  0  0  0  0
    5.2310   -3.8000    7.4630 S   0  0  0  0  0  0  0  0  0  0  0  0
    6.5120   -4.4680    7.5130 O   0  0  0  0  0  0  0  0  0  0  0  0
    4.0410   -4.3620    8.0690 O   0  0  0  0  0  0  0  0  0  0  0  0
    4.8710   -3.2890    5.8900 N   0  0  0  0  0  0  0  0  0  0  0  0
    5.3090   -4.1540    4.7690 C   0  0  0  0  0  2  0  0  0  0  0  0
    4.5170   -3.6600    3.5600 C   0  0  0  0  0  2  0  0  0  0  0  0
    3.4370   -2.7340    4.1130 C   0  0  0  0  0  2  0  0  0  0  0  0
    3.4180   -2.9970    5.6180 C   0  0  1  0  0  3  0  0  0  0  0  0
    2.4080   -4.1320    5.9630 C   0  0  0  0  0  0  0  0  0  0  0  0
    2.4960   -4.5820    7.1410 O   0  0  0  0  0  1  0  0  0  0  0  0
    1.5970   -4.4470    5.0430 O   0  0  0  0  0  0  0  0  0  0  0  0
  1 12  1  0  0  0  0
  1  2  1  0  0  0  0
  3  2  2  0  0  0  0
  3  4  1  0  0  0  0
  5  3  1  0  0  0  0
  6  5  1  0  0  0  0
  7  8  1  0  0  0  0
  7  5  2  0  0  0  0
  8  1  2  0  0  0  0
  9 10  1  0  0  0  0
 10 12  1  0  0  0  0
 10 11  2  0  0  0  0
 12 13  1  0  0  0  0
 14 15  2  0  0  0  0
 14 16  2  0  0  0  0
 14  8  1  0  0  0  0
 17 14  1  0  0  0  0
 18 17  1  0  0  0  0
 19 20  1  0  0  0  0
 19 18  1  0  0  0  0
 20 21  1  0  0  0  0
 21 17  1  0  0  0  0
 21 22  1  6  0  0  0
 22 23  1  0  0  0  0
 24 22  2  0  0  0  0
M  END
>  <minimizedAffinity>
-1.23066676

$$$$
