
 OpenBabel09132204463D

 24 25  0  0  1  0  0  0  0  0999 V2000
    3.3380   -1.4770    7.3100 C   0  0  0  0  0  0  0  0  0  0  0  0
    2.4450   -1.1130    6.2910 C   0  0  0  0  0  3  0  0  0  0  0  0
    2.0270   -2.0250    5.3000 C   0  0  0  0  0  0  0  0  0  0  0  0
    1.0710   -1.5660    4.2330 C   0  0  0  0  0  1  0  0  0  0  0  0
    2.5380   -3.3270    5.3220 C   0  0  0  0  0  0  0  0  0  0  0  0
    2.0800   -4.4970    4.1380 Cl  0  0  0  0  0  0  0  0  0  0  0  0
    3.4480   -3.7080    6.3030 C   0  0  0  0  0  3  0  0  0  0  0  0
    3.8430   -2.7890    7.2890 C   0  0  0  0  0  0  0  0  0  0  0  0
    2.1600   -0.9310   10.1350 C   0  0  0  0  0  1  0  0  0  0  0  0
    3.2510   -0.1370    9.4690 C   0  0  0  0  0  0  0  0  0  0  0  0
    3.7030    0.8640   10.0300 O   0  0  0  0  0  0  0  0  0  0  0  0
    3.7760   -0.5440    8.2760 N   0  0  0  0  0  0  0  0  0  0  0  0
    4.6650   -0.0720    8.0730 H   0  0  0  0  0  0  0  0  0  0  0  0
    5.0030   -3.3610    8.5320 S   0  0  0  0  0  0  0  0  0  0  0  0
    4.2770   -3.4020    9.7810 O   0  0  0  0  0  0  0  0  0  0  0  0
    5.6150   -4.5410    7.9540 O   0  0  0  0  0  0  0  0  0  0  0  0
    6.1160   -2.0870    8.5160 N   0  0  0  0  0  0  0  0  0  0  0  0
    7.2020   -2.1090    9.5240 C   0  0  0  0  0  2  0  0  0  0  0  0
    8.2300   -1.1000    9.0160 C   0  0  0  0  0  2  0  0  0  0  0  0
    7.8250   -0.7700    7.5820 C   0  0  0  0  0  2  0  0  0  0  0  0
    6.8060   -1.8430    7.1980 C   0  0  1  0  0  3  0  0  0  0  0  0
    7.5190   -3.0690    6.5540 C   0  0  0  0  0  0  0  0  0  0  0  0
    7.3290   -3.2020    5.3110 O   0  0  0  0  0  0  0  0  0  0  0  0
    8.2300   -3.7680    7.3360 O   0  0  0  0  0  1  0  0  0  0  0  0
  1 12  1  0  0  0  0
  2  1  2  0  0  0  0
  3  5  2  0  0  0  0
  3  2  1  0  0  0  0
  4  3  1  0  0  0  0
  5  7  1  0  0  0  0
  6  5  1  0  0  0  0
  7  8  2  0  0  0  0
  8  1  1  0  0  0  0
  8 14  1  0  0  0  0
 10 11  2  0  0  0  0
 10  9  1  0  0  0  0
 12 10  1  0  0  0  0
 13 12  1  0  0  0  0
 14 15  2  0  0  0  0
 16 14  2  0  0  0  0
 17 14  1  0  0  0  0
 17 18  1  0  0  0  0
 19 18  1  0  0  0  0
 20 19  1  0  0  0  0
 21 22  1  1  0  0  0
 21 20  1  0  0  0  0
 21 17  1  0  0  0  0
 22 24  1  0  0  0  0
 23 22  2  0  0  0  0
M  END
>  <minimizedAffinity>
-2.8303957

$$$$
