
 OpenBabel09132204463D

 24 25  0  0  1  0  0  0  0  0999 V2000
    4.9860   -4.1770    6.1580 C   0  0  0  0  0  0  0  0  0  0  0  0
    4.5380   -4.4050    4.8480 C   0  0  0  0  0  3  0  0  0  0  0  0
    5.3640   -4.1930    3.7260 C   0  0  0  0  0  0  0  0  0  0  0  0
    4.8170   -4.4520    2.3490 C   0  0  0  0  0  1  0  0  0  0  0  0
    6.6640   -3.7170    3.9250 C   0  0  0  0  0  0  0  0  0  0  0  0
    7.7320   -3.4240    2.6000 Cl  0  0  0  0  0  0  0  0  0  0  0  0
    7.1270   -3.4540    5.2100 C   0  0  0  0  0  3  0  0  0  0  0  0
    6.2930   -3.6830    6.3170 C   0  0  0  0  0  0  0  0  0  0  0  0
    2.5590   -2.4450    7.0360 C   0  0  0  0  0  1  0  0  0  0  0  0
    3.1480   -3.5910    7.8130 C   0  0  0  0  0  0  0  0  0  0  0  0
    2.7010   -3.8610    8.9310 O   0  0  0  0  0  0  0  0  0  0  0  0
    4.1370   -4.3610    7.2720 N   0  0  0  0  0  0  0  0  0  0  0  0
    4.2570   -5.2400    7.7880 H   0  0  0  0  0  0  0  0  0  0  0  0
    6.9680   -3.3400    7.9430 S   0  0  0  0  0  0  0  0  0  0  0  0
    6.8860   -4.5750    8.6890 O   0  0  0  0  0  0  0  0  0  0  0  0
    8.2290   -2.6710    7.6890 O   0  0  0  0  0  0  0  0  0  0  0  0
    5.8390   -2.2120    8.5070 N   0  0  0  0  0  0  0  0  0  0  0  0
    5.7440   -2.0060    9.9710 C   0  0  0  0  0  2  0  0  0  0  0  0
    4.9720   -0.6990   10.1350 C   0  0  0  0  0  2  0  0  0  0  0  0
    4.9250   -0.0600    8.7500 C   0  0  0  0  0  2  0  0  0  0  0  0
    5.9550   -0.8280    7.9210 C   0  0  1  0  0  3  0  0  0  0  0  0
    7.3540   -0.1500    8.0210 C   0  0  0  0  0  0  0  0  0  0  0  0
    7.9980   -0.0990    6.9350 O   0  0  0  0  0  0  0  0  0  0  0  0
    7.6690    0.3010    9.1620 O   0  0  0  0  0  1  0  0  0  0  0  0
  1  8  1  0  0  0  0
  1 12  1  0  0  0  0
  2  1  2  0  0  0  0
  3  5  2  0  0  0  0
  3  2  1  0  0  0  0
  4  3  1  0  0  0  0
  5  7  1  0  0  0  0
  6  5  1  0  0  0  0
  7  8  2  0  0  0  0
  8 14  1  0  0  0  0
  9 10  1  0  0  0  0
 10 11  2  0  0  0  0
 12 13  1  0  0  0  0
 12 10  1  0  0  0  0
 14 17  1  0  0  0  0
 14 15  2  0  0  0  0
 16 14  2  0  0  0  0
 17 18  1  0  0  0  0
 18 19  1  0  0  0  0
 20 19  1  0  0  0  0
 21 22  1  1  0  0  0
 21 17  1  0  0  0  0
 21 20  1  0  0  0  0
 22 24  1  0  0  0  0
 23 22  2  0  0  0  0
M  END
>  <minimizedAffinity>
-2.98643804

$$$$
