
 OpenBabel09132204463D

 24 25  0  0  1  0  0  0  0  0999 V2000
    3.8860   -3.6580    6.1600 C   0  0  0  0  0  0  0  0  0  0  0  0
    3.5460   -3.7120    4.8000 C   0  0  0  0  0  3  0  0  0  0  0  0
    4.5190   -3.8510    3.7900 C   0  0  0  0  0  0  0  0  0  0  0  0
    4.0850   -3.8970    2.3500 C   0  0  0  0  0  1  0  0  0  0  0  0
    5.8680   -3.9140    4.1550 C   0  0  0  0  0  0  0  0  0  0  0  0
    7.1180   -4.0750    2.9750 Cl  0  0  0  0  0  0  0  0  0  0  0  0
    6.2370   -3.8330    5.4940 C   0  0  0  0  0  3  0  0  0  0  0  0
    5.2520   -3.7070    6.4870 C   0  0  0  0  0  0  0  0  0  0  0  0
    2.4630   -1.0330    7.0250 C   0  0  0  0  0  1  0  0  0  0  0  0
    2.3280   -2.3700    7.7020 C   0  0  0  0  0  0  0  0  0  0  0  0
    1.6550   -2.4650    8.7310 O   0  0  0  0  0  0  0  0  0  0  0  0
    2.9030   -3.4830    7.1600 N   0  0  0  0  0  0  0  0  0  0  0  0
    2.5220   -4.3440    7.5700 H   0  0  0  0  0  0  0  0  0  0  0  0
    5.8050   -3.6300    8.1920 S   0  0  0  0  0  0  0  0  0  0  0  0
    4.9900   -4.5690    8.9290 O   0  0  0  0  0  0  0  0  0  0  0  0
    7.2480   -3.7470    8.1200 O   0  0  0  0  0  0  0  0  0  0  0  0
    5.3900   -2.0330    8.5720 N   0  0  0  0  0  0  0  0  0  0  0  0
    5.5840   -1.5870    9.9720 C   0  0  0  0  0  2  0  0  0  0  0  0
    5.5150   -0.0630    9.9110 C   0  0  0  0  0  2  0  0  0  0  0  0
    5.5900    0.3040    8.4320 C   0  0  0  0  0  2  0  0  0  0  0  0
    6.0460   -0.9720    7.7260 C   0  0  1  0  0  3  0  0  0  0  0  0
    7.6010   -1.0220    7.6360 C   0  0  0  0  0  0  0  0  0  0  0  0
    8.0630   -1.1010    6.4630 O   0  0  0  0  0  0  0  0  0  0  0  0
    8.2200   -0.9430    8.7380 O   0  0  0  0  0  1  0  0  0  0  0  0
  1  8  1  0  0  0  0
  1 12  1  0  0  0  0
  2  1  2  0  0  0  0
  3  5  2  0  0  0  0
  3  2  1  0  0  0  0
  4  3  1  0  0  0  0
  5  7  1  0  0  0  0
  6  5  1  0  0  0  0
  7  8  2  0  0  0  0
  8 14  1  0  0  0  0
  9 10  1  0  0  0  0
 10 11  2  0  0  0  0
 12 13  1  0  0  0  0
 12 10  1  0  0  0  0
 14 17  1  0  0  0  0
 14 15  2  0  0  0  0
 16 14  2  0  0  0  0
 17 18  1  0  0  0  0
 19 18  1  0  0  0  0
 20 19  1  0  0  0  0
 21 22  1  1  0  0  0
 21 20  1  0  0  0  0
 21 17  1  0  0  0  0
 22 24  1  0  0  0  0
 23 22  2  0  0  0  0
M  END
>  <minimizedAffinity>
-2.46041322

$$$$
