
 OpenBabel09132204463D

 24 25  0  0  1  0  0  0  0  0999 V2000
    6.8850   -3.1850    6.2240 C   0  0  0  0  0  0  0  0  0  0  0  0
    7.6960   -3.0540    5.0870 C   0  0  0  0  0  3  0  0  0  0  0  0
    7.2380   -3.3910    3.7970 C   0  0  0  0  0  0  0  0  0  0  0  0
    8.1630   -3.2310    2.6220 C   0  0  0  0  0  1  0  0  0  0  0  0
    5.9400   -3.8930    3.6510 C   0  0  0  0  0  0  0  0  0  0  0  0
    5.3120   -4.3350    2.1050 Cl  0  0  0  0  0  0  0  0  0  0  0  0
    5.1230   -4.0620    4.7640 C   0  0  0  0  0  3  0  0  0  0  0  0
    5.5930   -3.7090    6.0400 C   0  0  0  0  0  0  0  0  0  0  0  0
    6.9840   -0.4180    7.6360 C   0  0  0  0  0  1  0  0  0  0  0  0
    7.5800   -1.6950    8.1630 C   0  0  0  0  0  0  0  0  0  0  0  0
    8.2280   -1.6760    9.2120 O   0  0  0  0  0  0  0  0  0  0  0  0
    7.3680   -2.8780    7.5160 N   0  0  0  0  0  0  0  0  0  0  0  0
    7.6030   -3.6820    8.1100 H   0  0  0  0  0  0  0  0  0  0  0  0
    4.4730   -3.9360    7.4220 S   0  0  0  0  0  0  0  0  0  0  0  0
    3.2930   -4.5820    6.8920 O   0  0  0  0  0  0  0  0  0  0  0  0
    5.2840   -4.5380    8.4620 O   0  0  0  0  0  0  0  0  0  0  0  0
    4.1560   -2.3220    7.8220 N   0  0  0  0  0  0  0  0  0  0  0  0
    3.1870   -1.5830    6.9800 C   0  0  0  0  0  2  0  0  0  0  0  0
    2.8200   -0.3460    7.7980 C   0  0  0  0  0  2  0  0  0  0  0  0
    3.3660   -0.5910    9.2020 C   0  0  0  0  0  2  0  0  0  0  0  0
    3.7110   -2.0800    9.2420 C   0  0  1  0  0  3  0  0  0  0  0  0
    2.4900   -2.9110    9.7360 C   0  0  0  0  0  0  0  0  0  0  0  0
    1.3760   -2.3210    9.6510 O   0  0  0  0  0  0  0  0  0  0  0  0
    2.7470   -4.0870   10.1300 O   0  0  0  0  0  1  0  0  0  0  0  0
  1 12  1  0  0  0  0
  2  1  2  0  0  0  0
  3  2  1  0  0  0  0
  4  3  1  0  0  0  0
  5  3  2  0  0  0  0
  5  7  1  0  0  0  0
  6  5  1  0  0  0  0
  7  8  2  0  0  0  0
  8  1  1  0  0  0  0
  8 14  1  0  0  0  0
  9 10  1  0  0  0  0
 10 11  2  0  0  0  0
 12 13  1  0  0  0  0
 12 10  1  0  0  0  0
 14 17  1  0  0  0  0
 14 16  2  0  0  0  0
 15 14  2  0  0  0  0
 17 21  1  0  0  0  0
 18 19  1  0  0  0  0
 18 17  1  0  0  0  0
 19 20  1  0  0  0  0
 20 21  1  0  0  0  0
 21 22  1  6  0  0  0
 22 24  1  0  0  0  0
 23 22  2  0  0  0  0
M  END
>  <minimizedAffinity>
-3.48192525

$$$$
