REMARK  Name = 
REMARK  4 active torsions:
REMARK  status: ('A' for Active; 'I' for Inactive)
REMARK    1  A    between atoms: C_2  and  C_4
REMARK    2  A    between atoms: C_4  and  C_6
REMARK    3  A    between atoms: C_7  and  C_9
REMARK    4  A    between atoms: C_13  and  N_14
REMARK                            x       y       z     vdW  Elec       q    Type
REMARK                         _______ _______ _______ _____ _____    ______ ____
ROOT
ATOM      1  C   UNL     1       6.618   0.429  -0.524  0.00  0.00    -0.031 A 
ATOM      2  C   UNL     1       7.215   0.588   0.728  0.00  0.00    +0.007 A 
ATOM      3  C   UNL     1       8.499   0.101   0.951  0.00  0.00    +0.002 A 
ATOM      4  C   UNL     1       9.194  -0.544  -0.081  0.00  0.00    +0.023 A 
ATOM      5  C   UNL     1       8.639  -0.718  -1.360  0.00  0.00    +0.030 A 
ATOM      6  C   UNL     1       7.339  -0.214  -1.549  0.00  0.00    +0.030 A 
ENDROOT
BRANCH   5   7
ATOM      7  N   UNL     1       9.330  -1.352  -2.371  0.00  0.00    -0.330 N 
ATOM      8  C   UNL     1       8.732  -1.659  -3.666  0.00  0.00    +0.105 C 
ATOM      9  C   UNL     1       9.757  -2.583  -4.323  0.00  0.00    +0.020 C 
ATOM     10  C   UNL     1      11.077  -2.103  -3.742  0.00  0.00    +0.020 C 
ATOM     11  C   UNL     1      10.719  -1.769  -2.295  0.00  0.00    +0.105 C 
ENDBRANCH   5   7
BRANCH   1  13
ATOM     12  C   UNL     1       4.325   0.053  -0.257  0.00  0.00    +0.045 C 
ATOM     13  C   UNL     1       5.224   0.929  -0.778  0.00  0.00    -0.097 C 
ATOM     14  O   UNL     1       5.071   2.015  -1.407  0.00  0.00    -0.873 OA
BRANCH  12  15
ATOM     15  C   UNL     1       2.814   0.087  -0.247  0.00  0.00    +0.201 C 
ATOM     16  O   UNL     1       2.101   0.930  -0.787  0.00  0.00    -0.286 OA
BRANCH  15  18
ATOM     17  O   UNL     1       0.784  -1.095   0.452  0.00  0.00    -0.541 OA
ATOM     18  C   UNL     1       2.062  -1.058   0.510  0.00  0.00    +0.111 C 
ATOM     19  O   UNL     1       2.778  -1.906   1.150  0.00  0.00    -0.541 OA
ENDBRANCH  15  18
ENDBRANCH  12  15
ENDBRANCH   1  13
TORSDOF 4
