
 OpenBabel09122222393D

 19 20  0  0  0  0  0  0  0  0999 V2000
   12.0950   -0.0990   -1.9760 C   0  0  0  0  0  0  0  0  0  0  0  0
   13.0080   -0.8550   -2.7120 C   0  0  0  0  0  3  0  0  0  0  0  0
   12.9820   -2.2440   -2.6320 C   0  0  0  0  0  3  0  0  0  0  0  0
   12.0370   -2.8820   -1.8180 C   0  0  0  0  0  3  0  0  0  0  0  0
   11.0910   -2.1640   -1.0670 C   0  0  0  0  0  0  0  0  0  0  0  0
   11.1480   -0.7620   -1.1720 C   0  0  0  0  0  3  0  0  0  0  0  0
   10.1620   -2.8000   -0.2700 N   0  0  0  0  0  0  0  0  0  0  0  0
    9.4930   -2.1390    0.8450 C   0  0  0  0  0  2  0  0  0  0  0  0
    8.7970   -3.2870    1.5750 C   0  0  0  0  0  2  0  0  0  0  0  0
    8.4870   -4.2690    0.4580 C   0  0  0  0  0  2  0  0  0  0  0  0
    9.7180   -4.1710   -0.4420 C   0  0  0  0  0  2  0  0  0  0  0  0
   11.6480    1.9100   -0.8630 C   0  0  0  0  0  2  0  0  0  0  0  0
   12.1210    1.4030   -2.0320 C   0  0  0  0  0  0  0  0  0  0  0  0
   12.5380    1.9660   -3.0840 O   0  0  0  0  0  0  0  0  0  0  0  0
   11.4660    3.3420   -0.4170 C   0  0  0  0  0  0  0  0  0  0  0  0
   12.2060    4.2870   -0.6820 O   0  0  0  0  0  0  0  0  0  0  0  0
    9.2250    4.2780   -0.0880 O   0  0  0  0  0  0  0  0  0  0  0  0
   10.2150    3.6810    0.4610 C   0  0  0  0  0  0  0  0  0  0  0  0
   10.2530    3.3340    1.6930 O   0  0  0  0  0  1  0  0  0  0  0  0
  1  6  1  0  0  0  0
  2  3  1  0  0  0  0
  2  1  2  0  0  0  0
  3  4  2  0  0  0  0
  4  5  1  0  0  0  0
  5  7  1  0  0  0  0
  6  5  2  0  0  0  0
  7  8  1  0  0  0  0
  8  9  1  0  0  0  0
 10  9  1  0  0  0  0
 11  7  1  0  0  0  0
 11 10  1  0  0  0  0
 12 15  1  0  0  0  0
 13  1  1  0  0  0  0
 13 12  1  0  0  0  0
 14 13  2  0  0  0  0
 15 18  1  0  0  0  0
 16 15  2  0  0  0  0
 17 18  2  0  0  0  0
 18 19  1  0  0  0  0
M  END
>  <minimizedAffinity>
-6.35960245

$$$$
