
 OpenBabel09122218353D

 19 20  0  0  0  0  0  0  0  0999 V2000
   10.0940   -3.1560    0.0860 C   0  0  0  0  0  0  0  0  0  0  0  0
   10.2890   -2.5470    1.3270 C   0  0  0  0  0  3  0  0  0  0  0  0
    9.4080   -2.8060    2.3730 C   0  0  0  0  0  3  0  0  0  0  0  0
    8.3290   -3.6790    2.1810 C   0  0  0  0  0  3  0  0  0  0  0  0
    8.0980   -4.3230    0.9540 C   0  0  0  0  0  0  0  0  0  0  0  0
    9.0080   -4.0370   -0.0800 C   0  0  0  0  0  3  0  0  0  0  0  0
    7.0350   -5.1830    0.7740 N   0  0  0  0  0  0  0  0  0  0  0  0
    6.0700   -5.4790    1.8280 C   0  0  0  0  0  2  0  0  0  0  0  0
    5.2770   -6.6580    1.2660 C   0  0  0  0  0  2  0  0  0  0  0  0
    5.3150   -6.4150   -0.2340 C   0  0  0  0  0  2  0  0  0  0  0  0
    6.7250   -5.8750   -0.4640 C   0  0  0  0  0  2  0  0  0  0  0  0
   10.9920   -1.5450   -1.3530 C   0  0  0  0  0  2  0  0  0  0  0  0
   11.0210   -2.8730   -1.0620 C   0  0  0  0  0  0  0  0  0  0  0  0
   11.6580   -3.8330   -1.5820 O   0  0  0  0  0  0  0  0  0  0  0  0
   11.7300   -0.7560   -2.4100 C   0  0  0  0  0  0  0  0  0  0  0  0
   11.2620   -0.3400   -3.4670 O   0  0  0  0  0  0  0  0  0  0  0  0
   13.5810    0.8150   -2.0720 O   0  0  0  0  0  0  0  0  0  0  0  0
   13.2350   -0.4150   -2.1500 C   0  0  0  0  0  0  0  0  0  0  0  0
   14.0460   -1.3990   -2.0260 O   0  0  0  0  0  1  0  0  0  0  0  0
  1  2  1  0  0  0  0
  2  3  2  0  0  0  0
  4  3  1  0  0  0  0
  5  4  2  0  0  0  0
  6  1  2  0  0  0  0
  6  5  1  0  0  0  0
  7  5  1  0  0  0  0
  7  8  1  0  0  0  0
  9  8  1  0  0  0  0
 10  9  1  0  0  0  0
 11 10  1  0  0  0  0
 11  7  1  0  0  0  0
 12 13  1  0  0  0  0
 13  1  1  0  0  0  0
 14 13  2  0  0  0  0
 15 18  1  0  0  0  0
 15 12  1  0  0  0  0
 16 15  2  0  0  0  0
 18 17  2  0  0  0  0
 18 19  1  0  0  0  0
M  END
>  <minimizedAffinity>
-6.63198757

$$$$

 OpenBabel09122218353D

 19 20  0  0  0  0  0  0  0  0999 V2000
   10.3420    0.1210   -0.6180 C   0  0  0  0  0  0  0  0  0  0  0  0
    9.6120   -0.3190    0.4890 C   0  0  0  0  0  3  0  0  0  0  0  0
    9.2700    0.5780    1.4950 C   0  0  0  0  0  3  0  0  0  0  0  0
    9.6520    1.9230    1.3960 C   0  0  0  0  0  3  0  0  0  0  0  0
   10.3770    2.4140    0.2970 C   0  0  0  0  0  0  0  0  0  0  0  0
   10.7070    1.4780   -0.7000 C   0  0  0  0  0  3  0  0  0  0  0  0
   10.7480    3.7390    0.2060 N   0  0  0  0  0  0  0  0  0  0  0  0
   12.1380    4.1650    0.0850 C   0  0  0  0  0  2  0  0  0  0  0  0
   12.0690    5.6770    0.2980 C   0  0  0  0  0  2  0  0  0  0  0  0
   10.6950    6.0390   -0.2440 C   0  0  0  0  0  2  0  0  0  0  0  0
    9.8270    4.8620    0.1950 C   0  0  0  0  0  2  0  0  0  0  0  0
   11.4840   -1.8430   -1.1730 C   0  0  0  0  0  2  0  0  0  0  0  0
   10.7400   -0.8380   -1.7040 C   0  0  0  0  0  0  0  0  0  0  0  0
   10.3710   -0.6030   -2.8900 O   0  0  0  0  0  0  0  0  0  0  0  0
   12.1250   -3.0440   -1.8310 C   0  0  0  0  0  0  0  0  0  0  0  0
   11.6120   -4.1490   -1.9870 O   0  0  0  0  0  0  0  0  0  0  0  0
   14.5640   -3.1100   -1.5990 O   0  0  0  0  0  1  0  0  0  0  0  0
   13.5800   -2.8830   -2.3850 C   0  0  0  0  0  0  0  0  0  0  0  0
   13.7040   -2.5330   -3.6110 O   0  0  0  0  0  0  0  0  0  0  0  0
  1  2  1  0  0  0  0
  2  3  2  0  0  0  0
  4  3  1  0  0  0  0
  5  4  2  0  0  0  0
  6  1  2  0  0  0  0
  6  5  1  0  0  0  0
  7  5  1  0  0  0  0
  8  7  1  0  0  0  0
  8  9  1  0  0  0  0
 10 11  1  0  0  0  0
 10  9  1  0  0  0  0
 11  7  1  0  0  0  0
 13 12  1  0  0  0  0
 13  1  1  0  0  0  0
 14 13  2  0  0  0  0
 15 12  1  0  0  0  0
 16 15  2  0  0  0  0
 18 15  1  0  0  0  0
 18 17  1  0  0  0  0
 19 18  2  0  0  0  0
M  END
>  <minimizedAffinity>
-6.36721563

$$$$

 OpenBabel09122218353D

 19 20  0  0  0  0  0  0  0  0999 V2000
   12.0950   -0.0990   -1.9760 C   0  0  0  0  0  0  0  0  0  0  0  0
   13.0080   -0.8550   -2.7120 C   0  0  0  0  0  3  0  0  0  0  0  0
   12.9820   -2.2440   -2.6320 C   0  0  0  0  0  3  0  0  0  0  0  0
   12.0370   -2.8820   -1.8180 C   0  0  0  0  0  3  0  0  0  0  0  0
   11.0910   -2.1640   -1.0670 C   0  0  0  0  0  0  0  0  0  0  0  0
   11.1480   -0.7620   -1.1720 C   0  0  0  0  0  3  0  0  0  0  0  0
   10.1620   -2.8000   -0.2700 N   0  0  0  0  0  0  0  0  0  0  0  0
    9.4930   -2.1390    0.8450 C   0  0  0  0  0  2  0  0  0  0  0  0
    8.7970   -3.2870    1.5750 C   0  0  0  0  0  2  0  0  0  0  0  0
    8.4870   -4.2690    0.4580 C   0  0  0  0  0  2  0  0  0  0  0  0
    9.7180   -4.1710   -0.4420 C   0  0  0  0  0  2  0  0  0  0  0  0
   11.6480    1.9100   -0.8630 C   0  0  0  0  0  2  0  0  0  0  0  0
   12.1210    1.4030   -2.0320 C   0  0  0  0  0  0  0  0  0  0  0  0
   12.5380    1.9660   -3.0840 O   0  0  0  0  0  0  0  0  0  0  0  0
   11.4660    3.3420   -0.4170 C   0  0  0  0  0  0  0  0  0  0  0  0
   12.2060    4.2870   -0.6820 O   0  0  0  0  0  0  0  0  0  0  0  0
    9.2250    4.2780   -0.0880 O   0  0  0  0  0  0  0  0  0  0  0  0
   10.2150    3.6810    0.4610 C   0  0  0  0  0  0  0  0  0  0  0  0
   10.2530    3.3340    1.6930 O   0  0  0  0  0  1  0  0  0  0  0  0
  1  6  1  0  0  0  0
  2  3  1  0  0  0  0
  2  1  2  0  0  0  0
  3  4  2  0  0  0  0
  4  5  1  0  0  0  0
  5  7  1  0  0  0  0
  6  5  2  0  0  0  0
  7  8  1  0  0  0  0
  8  9  1  0  0  0  0
 10  9  1  0  0  0  0
 11  7  1  0  0  0  0
 11 10  1  0  0  0  0
 12 15  1  0  0  0  0
 13  1  1  0  0  0  0
 13 12  1  0  0  0  0
 14 13  2  0  0  0  0
 15 18  1  0  0  0  0
 16 15  2  0  0  0  0
 17 18  2  0  0  0  0
 18 19  1  0  0  0  0
M  END
>  <minimizedAffinity>
-6.35960245

$$$$

 OpenBabel09122218353D

 19 20  0  0  0  0  0  0  0  0999 V2000
   11.9220   -0.0860   -1.8220 C   0  0  0  0  0  0  0  0  0  0  0  0
   12.8250   -0.8310   -2.5820 C   0  0  0  0  0  3  0  0  0  0  0  0
   12.8030   -2.2210   -2.5180 C   0  0  0  0  0  3  0  0  0  0  0  0
   11.8730   -2.8720   -1.6970 C   0  0  0  0  0  3  0  0  0  0  0  0
   10.9370   -2.1650   -0.9230 C   0  0  0  0  0  0  0  0  0  0  0  0
   10.9890   -0.7610   -1.0110 C   0  0  0  0  0  3  0  0  0  0  0  0
   10.0230   -2.8120   -0.1180 N   0  0  0  0  0  0  0  0  0  0  0  0
    9.3630   -2.1630    1.0100 C   0  0  0  0  0  2  0  0  0  0  0  0
    8.6840   -3.3210    1.7400 C   0  0  0  0  0  2  0  0  0  0  0  0
    8.3680   -4.2980    0.6200 C   0  0  0  0  0  2  0  0  0  0  0  0
    9.5870   -4.1860   -0.2940 C   0  0  0  0  0  2  0  0  0  0  0  0
   11.3390    1.9080   -0.7470 C   0  0  0  0  0  2  0  0  0  0  0  0
   11.9440    1.4160   -1.8610 C   0  0  0  0  0  0  0  0  0  0  0  0
   12.4710    1.9930   -2.8540 O   0  0  0  0  0  0  0  0  0  0  0  0
   11.0980    3.3350   -0.3110 C   0  0  0  0  0  0  0  0  0  0  0  0
   10.0060    3.8590   -0.1050 O   0  0  0  0  0  0  0  0  0  0  0  0
   12.2510    5.4970   -0.3550 O   0  0  0  0  0  0  0  0  0  0  0  0
   12.3470    4.2500   -0.0830 C   0  0  0  0  0  0  0  0  0  0  0  0
   13.4070    3.6930    0.3730 O   0  0  0  0  0  1  0  0  0  0  0  0
  1  6  1  0  0  0  0
  2  3  1  0  0  0  0
  2  1  2  0  0  0  0
  3  4  2  0  0  0  0
  4  5  1  0  0  0  0
  5  7  1  0  0  0  0
  6  5  2  0  0  0  0
  7  8  1  0  0  0  0
  8  9  1  0  0  0  0
 10  9  1  0  0  0  0
 11  7  1  0  0  0  0
 11 10  1  0  0  0  0
 12 15  1  0  0  0  0
 13  1  1  0  0  0  0
 13 12  1  0  0  0  0
 14 13  2  0  0  0  0
 15 16  2  0  0  0  0
 15 18  1  0  0  0  0
 17 18  2  0  0  0  0
 18 19  1  0  0  0  0
M  END
>  <minimizedAffinity>
-6.34012699

$$$$

 OpenBabel09122218353D

 19 20  0  0  0  0  0  0  0  0999 V2000
    7.1870   -5.2240    0.0430 C   0  0  0  0  0  0  0  0  0  0  0  0
    6.4980   -6.0370   -0.8590 C   0  0  0  0  0  3  0  0  0  0  0  0
    5.3060   -6.6440   -0.4750 C   0  0  0  0  0  3  0  0  0  0  0  0
    4.7960   -6.4360    0.8130 C   0  0  0  0  0  3  0  0  0  0  0  0
    5.4480   -5.6180    1.7520 C   0  0  0  0  0  0  0  0  0  0  0  0
    6.6500   -5.0220    1.3300 C   0  0  0  0  0  3  0  0  0  0  0  0
    4.9380   -5.4160    3.0170 N   0  0  0  0  0  0  0  0  0  0  0  0
    5.0920   -4.1590    3.7410 C   0  0  0  0  0  2  0  0  0  0  0  0
    4.6280   -4.5020    5.1560 C   0  0  0  0  0  2  0  0  0  0  0  0
    3.5870   -5.5850    4.9250 C   0  0  0  0  0  2  0  0  0  0  0  0
    4.1780   -6.3960    3.7740 C   0  0  0  0  0  2  0  0  0  0  0  0
    8.9410   -3.8170    0.6850 C   0  0  0  0  0  2  0  0  0  0  0  0
    8.4860   -4.5770   -0.3450 C   0  0  0  0  0  0  0  0  0  0  0  0
    8.9550   -4.7950   -1.4990 O   0  0  0  0  0  0  0  0  0  0  0  0
   10.1860   -2.9670    0.8030 C   0  0  0  0  0  0  0  0  0  0  0  0
   11.0760   -3.0920    1.6410 O   0  0  0  0  0  0  0  0  0  0  0  0
    9.9210   -0.6560    0.0300 O   0  0  0  0  0  1  0  0  0  0  0  0
   10.3880   -1.8170   -0.2400 C   0  0  0  0  0  0  0  0  0  0  0  0
   11.0190   -2.1060   -1.3160 O   0  0  0  0  0  0  0  0  0  0  0  0
  1  6  1  0  0  0  0
  2  3  1  0  0  0  0
  2  1  2  0  0  0  0
  3  4  2  0  0  0  0
  4  5  1  0  0  0  0
  5  7  1  0  0  0  0
  6  5  2  0  0  0  0
  7  8  1  0  0  0  0
  7 11  1  0  0  0  0
  8  9  1  0  0  0  0
 10  9  1  0  0  0  0
 11 10  1  0  0  0  0
 12 15  1  0  0  0  0
 13  1  1  0  0  0  0
 13 12  1  0  0  0  0
 14 13  2  0  0  0  0
 15 16  2  0  0  0  0
 18 17  1  0  0  0  0
 18 15  1  0  0  0  0
 19 18  2  0  0  0  0
M  END
>  <minimizedAffinity>
-6.30580235

$$$$

 OpenBabel09122218353D

 19 20  0  0  0  0  0  0  0  0999 V2000
   10.0020   -0.2510    0.0950 C   0  0  0  0  0  0  0  0  0  0  0  0
   10.6010   -0.7570   -1.0610 C   0  0  0  0  0  3  0  0  0  0  0  0
   11.2750    0.1010   -1.9240 C   0  0  0  0  0  3  0  0  0  0  0  0
   11.3580    1.4690   -1.6320 C   0  0  0  0  0  3  0  0  0  0  0  0
   10.7810    2.0220   -0.4760 C   0  0  0  0  0  0  0  0  0  0  0  0
   10.1060    1.1250    0.3730 C   0  0  0  0  0  3  0  0  0  0  0  0
   10.8690    3.3690   -0.1940 N   0  0  0  0  0  0  0  0  0  0  0  0
    9.7090    4.1790    0.1650 C   0  0  0  0  0  2  0  0  0  0  0  0
   10.2410    5.6100    0.1060 C   0  0  0  0  0  2  0  0  0  0  0  0
   11.7040    5.4510    0.4860 C   0  0  0  0  0  2  0  0  0  0  0  0
   12.0990    4.1400   -0.1930 C   0  0  0  0  0  2  0  0  0  0  0  0
    9.3180   -2.4360    0.5730 C   0  0  0  0  0  2  0  0  0  0  0  0
    9.2510   -1.1580    1.0280 C   0  0  0  0  0  0  0  0  0  0  0  0
    8.6820   -0.6550    2.0400 O   0  0  0  0  0  0  0  0  0  0  0  0
    8.7330   -3.7110    1.1360 C   0  0  0  0  0  0  0  0  0  0  0  0
    8.4640   -3.9300    2.3150 O   0  0  0  0  0  0  0  0  0  0  0  0
    8.7540   -4.7360   -1.0900 O   0  0  0  0  0  0  0  0  0  0  0  0
    8.4220   -4.8760    0.1380 C   0  0  0  0  0  0  0  0  0  0  0  0
    7.8480   -5.9180    0.6140 O   0  0  0  0  0  1  0  0  0  0  0  0
  1  6  1  0  0  0  0
  1 13  1  0  0  0  0
  2  1  2  0  0  0  0
  3  4  2  0  0  0  0
  3  2  1  0  0  0  0
  4  5  1  0  0  0  0
  5  7  1  0  0  0  0
  5  6  2  0  0  0  0
  7 11  1  0  0  0  0
  7  8  1  0  0  0  0
  9  8  1  0  0  0  0
  9 10  1  0  0  0  0
 11 10  1  0  0  0  0
 12 13  1  0  0  0  0
 12 15  1  0  0  0  0
 13 14  2  0  0  0  0
 15 16  2  0  0  0  0
 17 18  2  0  0  0  0
 18 19  1  0  0  0  0
 18 15  1  0  0  0  0
M  END
>  <minimizedAffinity>
-6.2524333

$$$$

 OpenBabel09122218353D

 19 20  0  0  0  0  0  0  0  0999 V2000
    7.2980   -5.1670    0.1390 C   0  0  0  0  0  0  0  0  0  0  0  0
    6.6820   -5.9560   -0.8330 C   0  0  0  0  0  3  0  0  0  0  0  0
    5.4920   -6.6140   -0.5400 C   0  0  0  0  0  3  0  0  0  0  0  0
    4.9100   -6.4820    0.7280 C   0  0  0  0  0  3  0  0  0  0  0  0
    5.4880   -5.6900    1.7350 C   0  0  0  0  0  0  0  0  0  0  0  0
    6.6910   -5.0400    1.4040 C   0  0  0  0  0  3  0  0  0  0  0  0
    4.9090   -5.5630    2.9800 N   0  0  0  0  0  0  0  0  0  0  0  0
    4.2100   -6.6590    3.6430 C   0  0  0  0  0  2  0  0  0  0  0  0
    3.5200   -5.9790    4.8260 C   0  0  0  0  0  2  0  0  0  0  0  0
    4.4610   -4.8340    5.1630 C   0  0  0  0  0  2  0  0  0  0  0  0
    4.9350   -4.3590    3.7910 C   0  0  0  0  0  2  0  0  0  0  0  0
    8.8520   -3.5600    0.8300 C   0  0  0  0  0  2  0  0  0  0  0  0
    8.5950   -4.4650   -0.1510 C   0  0  0  0  0  0  0  0  0  0  0  0
    9.2330   -4.7720   -1.1990 O   0  0  0  0  0  0  0  0  0  0  0  0
   10.0100   -2.6060    1.0060 C   0  0  0  0  0  0  0  0  0  0  0  0
   11.2000   -2.9080    1.0640 O   0  0  0  0  0  0  0  0  0  0  0  0
    9.3410   -0.6060    2.2550 O   0  0  0  0  0  1  0  0  0  0  0  0
    9.6890   -1.0780    1.1170 C   0  0  0  0  0  0  0  0  0  0  0  0
    9.7960   -0.3770    0.0500 O   0  0  0  0  0  0  0  0  0  0  0  0
  1  6  1  0  0  0  0
  2  3  1  0  0  0  0
  2  1  2  0  0  0  0
  3  4  2  0  0  0  0
  4  5  1  0  0  0  0
  5  7  1  0  0  0  0
  6  5  2  0  0  0  0
  7  8  1  0  0  0  0
  7 11  1  0  0  0  0
  8  9  1  0  0  0  0
  9 10  1  0  0  0  0
 11 10  1  0  0  0  0
 12 15  1  0  0  0  0
 13  1  1  0  0  0  0
 13 12  1  0  0  0  0
 14 13  2  0  0  0  0
 15 16  2  0  0  0  0
 15 18  1  0  0  0  0
 18 17  1  0  0  0  0
 19 18  2  0  0  0  0
M  END
>  <minimizedAffinity>
-6.1863308

$$$$

 OpenBabel09122218353D

 19 20  0  0  0  0  0  0  0  0999 V2000
    8.3250   -4.3670    0.4870 C   0  0  0  0  0  0  0  0  0  0  0  0
    8.0030   -4.9720   -0.7290 C   0  0  0  0  0  3  0  0  0  0  0  0
    6.8480   -5.7400   -0.8380 C   0  0  0  0  0  3  0  0  0  0  0  0
    6.0060   -5.9020    0.2710 C   0  0  0  0  0  3  0  0  0  0  0  0
    6.2830   -5.3050    1.5120 C   0  0  0  0  0  0  0  0  0  0  0  0
    7.4590   -4.5360    1.5850 C   0  0  0  0  0  3  0  0  0  0  0  0
    5.4490   -5.4670    2.5980 N   0  0  0  0  0  0  0  0  0  0  0  0
    5.2400   -4.4250    3.5980 C   0  0  0  0  0  2  0  0  0  0  0  0
    4.4880   -5.1470    4.7150 C   0  0  0  0  0  2  0  0  0  0  0  0
    3.6980   -6.2100    3.9690 C   0  0  0  0  0  2  0  0  0  0  0  0
    4.6670   -6.6590    2.8760 C   0  0  0  0  0  2  0  0  0  0  0  0
   10.3280   -3.6700   -0.4980 C   0  0  0  0  0  2  0  0  0  0  0  0
    9.5790   -3.5520    0.6290 C   0  0  0  0  0  0  0  0  0  0  0  0
    9.7720   -2.9140    1.7040 O   0  0  0  0  0  0  0  0  0  0  0  0
   11.6640   -3.0610   -0.8570 C   0  0  0  0  0  0  0  0  0  0  0  0
   12.7480   -3.3270   -0.3410 O   0  0  0  0  0  0  0  0  0  0  0  0
   12.7800   -1.8420   -2.6660 O   0  0  0  0  0  0  0  0  0  0  0  0
   11.6980   -1.9930   -2.0000 C   0  0  0  0  0  0  0  0  0  0  0  0
   10.6250   -1.3240   -2.2090 O   0  0  0  0  0  1  0  0  0  0  0  0
  1 13  1  0  0  0  0
  1  6  1  0  0  0  0
  2  1  2  0  0  0  0
  3  2  1  0  0  0  0
  3  4  2  0  0  0  0
  4  5  1  0  0  0  0
  5  6  2  0  0  0  0
  5  7  1  0  0  0  0
  7 11  1  0  0  0  0
  7  8  1  0  0  0  0
  8  9  1  0  0  0  0
 10  9  1  0  0  0  0
 11 10  1  0  0  0  0
 12 13  1  0  0  0  0
 13 14  2  0  0  0  0
 15 12  1  0  0  0  0
 15 16  2  0  0  0  0
 17 18  2  0  0  0  0
 18 15  1  0  0  0  0
 19 18  1  0  0  0  0
M  END
>  <minimizedAffinity>
-6.15963268

$$$$

 OpenBabel09122218353D

 19 20  0  0  0  0  0  0  0  0999 V2000
    9.4160   -3.2840    0.9350 C   0  0  0  0  0  0  0  0  0  0  0  0
   10.0830   -2.5200    1.8950 C   0  0  0  0  0  3  0  0  0  0  0  0
    9.5340   -2.3670    3.1640 C   0  0  0  0  0  3  0  0  0  0  0  0
    8.3140   -2.9820    3.4790 C   0  0  0  0  0  3  0  0  0  0  0  0
    7.6120   -3.7680    2.5510 C   0  0  0  0  0  0  0  0  0  0  0  0
    8.1970   -3.9000    1.2780 C   0  0  0  0  0  3  0  0  0  0  0  0
    6.4140   -4.3720    2.8690 N   0  0  0  0  0  0  0  0  0  0  0  0
    5.6220   -3.9920    4.0350 C   0  0  0  0  0  2  0  0  0  0  0  0
    4.5670   -5.0940    4.1240 C   0  0  0  0  0  2  0  0  0  0  0  0
    4.3690   -5.5020    2.6740 C   0  0  0  0  0  2  0  0  0  0  0  0
    5.7810   -5.4250    2.0950 C   0  0  0  0  0  2  0  0  0  0  0  0
   10.9490   -2.5100   -0.6530 C   0  0  0  0  0  2  0  0  0  0  0  0
    9.9830   -3.4430   -0.4480 C   0  0  0  0  0  0  0  0  0  0  0  0
    9.5180   -4.3500   -1.1960 O   0  0  0  0  0  0  0  0  0  0  0  0
   11.8140   -2.2430   -1.8630 C   0  0  0  0  0  0  0  0  0  0  0  0
   12.6730   -2.9910   -2.3240 O   0  0  0  0  0  0  0  0  0  0  0  0
   10.4540   -0.6400   -3.1240 O   0  0  0  0  0  0  0  0  0  0  0  0
   11.6060   -0.8920   -2.6270 C   0  0  0  0  0  0  0  0  0  0  0  0
   12.6130   -0.1040   -2.7080 O   0  0  0  0  0  1  0  0  0  0  0  0
  1  6  2  0  0  0  0
  1  2  1  0  0  0  0
  2  3  2  0  0  0  0
  3  4  1  0  0  0  0
  5  7  1  0  0  0  0
  5  4  2  0  0  0  0
  6  5  1  0  0  0  0
  7  8  1  0  0  0  0
  8  9  1  0  0  0  0
 10  9  1  0  0  0  0
 11 10  1  0  0  0  0
 11  7  1  0  0  0  0
 12 13  1  0  0  0  0
 13  1  1  0  0  0  0
 14 13  2  0  0  0  0
 15 12  1  0  0  0  0
 16 15  2  0  0  0  0
 17 18  2  0  0  0  0
 18 15  1  0  0  0  0
 19 18  1  0  0  0  0
M  END
>  <minimizedAffinity>
-6.14320755

$$$$

 OpenBabel09122218353D

 19 20  0  0  0  0  0  0  0  0999 V2000
   10.6230   -1.4680   -0.9720 C   0  0  0  0  0  0  0  0  0  0  0  0
   11.2970   -1.5880   -2.1880 C   0  0  0  0  0  3  0  0  0  0  0  0
   11.8320   -0.4580   -2.7990 C   0  0  0  0  0  3  0  0  0  0  0  0
   11.6990    0.7970   -2.1910 C   0  0  0  0  0  3  0  0  0  0  0  0
   11.0390    0.9660   -0.9630 C   0  0  0  0  0  0  0  0  0  0  0  0
   10.5090   -0.1970   -0.3750 C   0  0  0  0  0  3  0  0  0  0  0  0
   10.9130    2.2050   -0.3700 N   0  0  0  0  0  0  0  0  0  0  0  0
   11.8530    3.2950   -0.6100 C   0  0  0  0  0  2  0  0  0  0  0  0
   11.4760    4.3320    0.4480 C   0  0  0  0  0  2  0  0  0  0  0  0
    9.9830    4.1090    0.6330 C   0  0  0  0  0  2  0  0  0  0  0  0
    9.8440    2.5910    0.5330 C   0  0  0  0  0  2  0  0  0  0  0  0
    9.6190   -2.3460    0.9500 C   0  0  0  0  0  2  0  0  0  0  0  0
   10.0190   -2.6730   -0.3070 C   0  0  0  0  0  0  0  0  0  0  0  0
    9.9720   -3.7630   -0.9470 O   0  0  0  0  0  0  0  0  0  0  0  0
    8.9640   -3.1870    2.0210 C   0  0  0  0  0  0  0  0  0  0  0  0
    8.0790   -4.0230    1.8510 O   0  0  0  0  0  0  0  0  0  0  0  0
   10.6510   -2.6080    3.7010 O   0  0  0  0  0  0  0  0  0  0  0  0
    9.4500   -3.0000    3.4970 C   0  0  0  0  0  0  0  0  0  0  0  0
    8.6060   -3.2510    4.4280 O   0  0  0  0  0  1  0  0  0  0  0  0
  1  6  1  0  0  0  0
  1 13  1  0  0  0  0
  2  1  2  0  0  0  0
  3  4  2  0  0  0  0
  3  2  1  0  0  0  0
  4  5  1  0  0  0  0
  5  6  2  0  0  0  0
  5  7  1  0  0  0  0
  7 11  1  0  0  0  0
  8  7  1  0  0  0  0
  8  9  1  0  0  0  0
  9 10  1  0  0  0  0
 11 10  1  0  0  0  0
 12 15  1  0  0  0  0
 13 12  1  0  0  0  0
 14 13  2  0  0  0  0
 15 18  1  0  0  0  0
 16 15  2  0  0  0  0
 18 17  2  0  0  0  0
 18 19  1  0  0  0  0
M  END
>  <minimizedAffinity>
-6.10418844

$$$$
