
 OpenBabel09122222393D

 19 20  0  0  0  0  0  0  0  0999 V2000
   10.0940   -3.1560    0.0860 C   0  0  0  0  0  0  0  0  0  0  0  0
   10.2890   -2.5470    1.3270 C   0  0  0  0  0  3  0  0  0  0  0  0
    9.4080   -2.8060    2.3730 C   0  0  0  0  0  3  0  0  0  0  0  0
    8.3290   -3.6790    2.1810 C   0  0  0  0  0  3  0  0  0  0  0  0
    8.0980   -4.3230    0.9540 C   0  0  0  0  0  0  0  0  0  0  0  0
    9.0080   -4.0370   -0.0800 C   0  0  0  0  0  3  0  0  0  0  0  0
    7.0350   -5.1830    0.7740 N   0  0  0  0  0  0  0  0  0  0  0  0
    6.0700   -5.4790    1.8280 C   0  0  0  0  0  2  0  0  0  0  0  0
    5.2770   -6.6580    1.2660 C   0  0  0  0  0  2  0  0  0  0  0  0
    5.3150   -6.4150   -0.2340 C   0  0  0  0  0  2  0  0  0  0  0  0
    6.7250   -5.8750   -0.4640 C   0  0  0  0  0  2  0  0  0  0  0  0
   10.9920   -1.5450   -1.3530 C   0  0  0  0  0  2  0  0  0  0  0  0
   11.0210   -2.8730   -1.0620 C   0  0  0  0  0  0  0  0  0  0  0  0
   11.6580   -3.8330   -1.5820 O   0  0  0  0  0  0  0  0  0  0  0  0
   11.7300   -0.7560   -2.4100 C   0  0  0  0  0  0  0  0  0  0  0  0
   11.2620   -0.3400   -3.4670 O   0  0  0  0  0  0  0  0  0  0  0  0
   13.5810    0.8150   -2.0720 O   0  0  0  0  0  0  0  0  0  0  0  0
   13.2350   -0.4150   -2.1500 C   0  0  0  0  0  0  0  0  0  0  0  0
   14.0460   -1.3990   -2.0260 O   0  0  0  0  0  1  0  0  0  0  0  0
  1  2  1  0  0  0  0
  2  3  2  0  0  0  0
  4  3  1  0  0  0  0
  5  4  2  0  0  0  0
  6  1  2  0  0  0  0
  6  5  1  0  0  0  0
  7  5  1  0  0  0  0
  7  8  1  0  0  0  0
  9  8  1  0  0  0  0
 10  9  1  0  0  0  0
 11 10  1  0  0  0  0
 11  7  1  0  0  0  0
 12 13  1  0  0  0  0
 13  1  1  0  0  0  0
 14 13  2  0  0  0  0
 15 18  1  0  0  0  0
 15 12  1  0  0  0  0
 16 15  2  0  0  0  0
 18 17  2  0  0  0  0
 18 19  1  0  0  0  0
M  END
>  <minimizedAffinity>
-6.63198757

$$$$
