
 OpenBabel08162216463D

 26 27  0  0  1  0  0  0  0  0999 V2000
    6.5860   -2.0830   31.6770 C   0  0  0  0  0  0  0  0  0  0  0  0
    6.1480   -1.1710   32.6490 C   0  0  0  0  0  3  0  0  0  0  0  0
    4.8950   -0.5940   32.5150 C   0  0  0  0  0  0  0  0  0  0  0  0
    4.2730    0.6230   33.8200 Br  0  0  0  0  0  0  0  0  0  0  0  0
    4.0980   -0.9100   31.4220 C   0  0  0  0  0  3  0  0  0  0  0  0
    4.5560   -1.8040   30.4400 C   0  0  0  0  0  3  0  0  0  0  0  0
    5.8040   -2.4140   30.5440 C   0  0  0  0  0  0  0  0  0  0  0  0
    9.9860    0.4680   28.7070 C   0  0  0  0  0  1  0  0  0  0  0  0
    9.9430   -0.8590   29.4600 C   0  0  1  0  0  3  0  0  0  0  0  0
   11.3540   -1.2970   29.8780 C   0  0  0  0  0  2  0  0  0  0  0  0
   11.3040   -2.6110   30.6700 C   0  0  1  0  0  3  0  0  0  0  0  0
   12.7020   -3.0230   31.1220 C   0  0  0  0  0  1  0  0  0  0  0  0
   10.3620   -2.4750   31.8710 C   0  0  0  0  0  2  0  0  0  0  0  0
    9.0430   -2.0090   31.4650 N   0  0  0  0  0  0  0  0  0  0  0  0
    7.9130   -2.6880   31.9100 C   0  0  0  0  0  0  0  0  0  0  0  0
    7.9440   -3.7630   32.5040 O   0  0  0  0  0  0  0  0  0  0  0  0
    9.0170   -0.7630   30.6810 C   0  0  0  0  0  2  0  0  0  0  0  0
    6.3540   -3.2830   29.5790 N   0  0  0  0  0  0  0  0  0  0  0  0
    6.0980   -4.5330   29.1160 C   0  0  0  0  0  0  0  0  0  0  0  0
    6.7490   -4.8900   28.1210 O   0  0  0  0  0  0  0  0  0  0  0  0
    7.1680   -2.9240   29.0920 H   0  0  0  0  0  0  0  0  0  0  0  0
    5.1460   -5.5220   29.7500 C   0  0  0  0  0  2  0  0  0  0  0  0
    5.6870   -6.0580   31.0670 C   0  0  0  0  0  2  0  0  0  0  0  0
    6.0800   -7.5200   30.9400 C   0  0  0  0  0  0  0  0  0  0  0  0
    6.1530   -7.9530   29.7550 O   0  0  0  0  0  0  0  0  0  0  0  0
    6.2910   -8.1170   32.0310 O   0  0  0  0  0  1  0  0  0  0  0  0
  1 15  1  0  0  0  0
  1  2  1  0  0  0  0
  3  2  2  0  0  0  0
  3  4  1  0  0  0  0
  5  3  1  0  0  0  0
  6  7  1  0  0  0  0
  6  5  2  0  0  0  0
  7  1  2  0  0  0  0
  9  8  1  1  0  0  0
  9 10  1  0  0  0  0
  9 17  1  0  0  0  0
 10 11  1  0  0  0  0
 11 12  1  1  0  0  0
 11 13  1  0  0  0  0
 14 13  1  0  0  0  0
 14 15  1  0  0  0  0
 15 16  2  0  0  0  0
 17 14  1  0  0  0  0
 18  7  1  0  0  0  0
 19 18  1  0  0  0  0
 19 22  1  0  0  0  0
 20 19  2  0  0  0  0
 21 18  1  0  0  0  0
 22 23  1  0  0  0  0
 24 23  1  0  0  0  0
 24 26  1  0  0  0  0
 25 24  2  0  0  0  0
M  END
>  <minimizedAffinity>
-7.11102915

$$$$

 OpenBabel08162216463D

 26 27  0  0  1  0  0  0  0  0999 V2000
  -10.6640   -2.9900   -5.8290 C   0  0  0  0  0  0  0  0  0  0  0  0
   -9.5740   -3.6790   -5.2790 C   0  0  0  0  0  3  0  0  0  0  0  0
   -8.2900   -3.2340   -5.5460 C   0  0  0  0  0  0  0  0  0  0  0  0
   -6.8040   -4.1330   -4.8020 Br  0  0  0  0  0  0  0  0  0  0  0  0
   -8.0950   -2.1260   -6.3630 C   0  0  0  0  0  3  0  0  0  0  0  0
   -9.1910   -1.4590   -6.9320 C   0  0  0  0  0  3  0  0  0  0  0  0
  -10.4980   -1.8680   -6.6780 C   0  0  0  0  0  0  0  0  0  0  0  0
  -12.5450   -5.4870   -9.9660 C   0  0  0  0  0  1  0  0  0  0  0  0
  -13.1030   -4.9010   -8.6720 C   0  0  1  0  0  3  0  0  0  0  0  0
  -14.3680   -5.6510   -8.2340 C   0  0  0  0  0  2  0  0  0  0  0  0
  -14.9040   -5.0880   -6.9100 C   0  0  1  0  0  3  0  0  0  0  0  0
  -16.1380   -5.8620   -6.4530 C   0  0  0  0  0  1  0  0  0  0  0  0
  -13.8130   -5.1190   -5.8350 C   0  0  0  0  0  2  0  0  0  0  0  0
  -12.6000   -4.4480   -6.2860 N   0  0  0  0  0  0  0  0  0  0  0  0
  -12.0020   -3.4980   -5.4640 C   0  0  0  0  0  0  0  0  0  0  0  0
  -12.5100   -3.0580   -4.4360 O   0  0  0  0  0  0  0  0  0  0  0  0
  -12.0420   -4.9240   -7.5620 C   0  0  0  0  0  2  0  0  0  0  0  0
  -11.6480   -1.2810   -7.2470 N   0  0  0  0  0  0  0  0  0  0  0  0
  -12.5460   -0.3270   -6.8950 C   0  0  0  0  0  0  0  0  0  0  0  0
  -13.3550    0.0110   -7.7750 O   0  0  0  0  0  0  0  0  0  0  0  0
  -11.9170   -1.6550   -8.1510 H   0  0  0  0  0  0  0  0  0  0  0  0
  -12.6710    0.2930   -5.5220 C   0  0  0  0  0  2  0  0  0  0  0  0
  -11.9380    1.6240   -5.4390 C   0  0  0  0  0  2  0  0  0  0  0  0
  -12.3280    2.3830   -4.1820 C   0  0  0  0  0  0  0  0  0  0  0  0
  -12.3980    1.6810   -3.1340 O   0  0  0  0  0  1  0  0  0  0  0  0
  -12.5260    3.6190   -4.3400 O   0  0  0  0  0  0  0  0  0  0  0  0
  1 15  1  0  0  0  0
  1  2  1  0  0  0  0
  3  2  2  0  0  0  0
  3  4  1  0  0  0  0
  5  3  1  0  0  0  0
  6  7  1  0  0  0  0
  6  5  2  0  0  0  0
  7  1  2  0  0  0  0
  9  8  1  6  0  0  0
  9 10  1  0  0  0  0
  9 17  1  0  0  0  0
 10 11  1  0  0  0  0
 11 12  1  1  0  0  0
 11 13  1  0  0  0  0
 14 13  1  0  0  0  0
 14 15  1  0  0  0  0
 15 16  2  0  0  0  0
 17 14  1  0  0  0  0
 18 19  1  0  0  0  0
 18  7  1  0  0  0  0
 19 22  1  0  0  0  0
 20 19  2  0  0  0  0
 21 18  1  0  0  0  0
 22 23  1  0  0  0  0
 23 24  1  0  0  0  0
 24 25  1  0  0  0  0
 26 24  2  0  0  0  0
M  END
>  <minimizedAffinity>
-7.07870913

$$$$

 OpenBabel08162216463D

 26 27  0  0  1  0  0  0  0  0999 V2000
    8.6820    0.4350   31.4720 C   0  0  0  0  0  0  0  0  0  0  0  0
    9.2850    1.0670   30.3750 C   0  0  0  0  0  3  0  0  0  0  0  0
    9.4910    2.4370   30.4160 C   0  0  0  0  0  0  0  0  0  0  0  0
   10.3190    3.3100   28.9590 Br  0  0  0  0  0  0  0  0  0  0  0  0
    9.0900    3.1670   31.5280 C   0  0  0  0  0  3  0  0  0  0  0  0
    8.4620    2.5290   32.6110 C   0  0  0  0  0  3  0  0  0  0  0  0
    8.2470    1.1530   32.6130 C   0  0  0  0  0  0  0  0  0  0  0  0
    3.8280   -0.5220   29.9190 C   0  0  0  0  0  1  0  0  0  0  0  0
    4.9640   -1.3080   30.5670 C   0  0  1  0  0  3  0  0  0  0  0  0
    4.8690   -2.7990   30.2100 C   0  0  0  0  0  2  0  0  0  0  0  0
    6.0360   -3.5820   30.8290 C   0  0  1  0  0  3  0  0  0  0  0  0
    5.9640   -5.0560   30.4390 C   0  0  0  0  0  1  0  0  0  0  0  0
    7.3750   -2.9700   30.4030 C   0  0  0  0  0  2  0  0  0  0  0  0
    7.4300   -1.5450   30.7000 N   0  0  0  0  0  0  0  0  0  0  0  0
    8.5340   -1.0310   31.3730 C   0  0  0  0  0  0  0  0  0  0  0  0
    9.4130   -1.7210   31.8830 O   0  0  0  0  0  0  0  0  0  0  0  0
    6.3280   -0.7340   30.1560 C   0  0  0  0  0  2  0  0  0  0  0  0
    7.5830    0.4470   33.6380 N   0  0  0  0  0  0  0  0  0  0  0  0
    6.3710    0.4970   34.2460 C   0  0  0  0  0  0  0  0  0  0  0  0
    6.1160   -0.4310   35.0310 O   0  0  0  0  0  0  0  0  0  0  0  0
    8.1280   -0.2900   34.0730 H   0  0  0  0  0  0  0  0  0  0  0  0
    5.3600    1.6090   34.0880 C   0  0  0  0  0  2  0  0  0  0  0  0
    4.2820    1.2490   33.0770 C   0  0  0  0  0  2  0  0  0  0  0  0
    3.0570    0.6740   33.7680 C   0  0  0  0  0  0  0  0  0  0  0  0
    2.4530   -0.2290   33.1230 O   0  0  0  0  0  0  0  0  0  0  0  0
    2.8000    1.1650   34.9010 O   0  0  0  0  0  1  0  0  0  0  0  0
  1  7  1  0  0  0  0
  2  3  1  0  0  0  0
  2  1  2  0  0  0  0
  3  5  2  0  0  0  0
  4  3  1  0  0  0  0
  5  6  1  0  0  0  0
  6  7  2  0  0  0  0
  7 18  1  0  0  0  0
  9  8  1  6  0  0  0
 10  9  1  0  0  0  0
 10 11  1  0  0  0  0
 11 12  1  6  0  0  0
 13 14  1  0  0  0  0
 13 11  1  0  0  0  0
 14 15  1  0  0  0  0
 15  1  1  0  0  0  0
 15 16  2  0  0  0  0
 17  9  1  0  0  0  0
 17 14  1  0  0  0  0
 18 21  1  0  0  0  0
 18 19  1  0  0  0  0
 19 20  2  0  0  0  0
 22 19  1  0  0  0  0
 23 24  1  0  0  0  0
 23 22  1  0  0  0  0
 24 26  1  0  0  0  0
 25 24  2  0  0  0  0
M  END
>  <minimizedAffinity>
-6.95178843

$$$$

 OpenBabel08162216463D

 26 27  0  0  1  0  0  0  0  0999 V2000
   19.2380   -8.9260   85.6010 C   0  0  0  0  0  0  0  0  0  0  0  0
   19.8710   -9.2450   84.3910 C   0  0  0  0  0  3  0  0  0  0  0  0
   20.3420   -8.2200   83.5860 C   0  0  0  0  0  0  0  0  0  0  0  0
   21.2150   -8.6230   81.9590 Br  0  0  0  0  0  0  0  0  0  0  0  0
   20.1710   -6.8970   83.9750 C   0  0  0  0  0  3  0  0  0  0  0  0
   19.5120   -6.5870   85.1750 C   0  0  0  0  0  3  0  0  0  0  0  0
   19.0350   -7.5890   86.0180 C   0  0  0  0  0  0  0  0  0  0  0  0
   14.1390   -9.5060   84.8600 C   0  0  0  0  0  1  0  0  0  0  0  0
   15.1750   -9.9700   85.8800 C   0  0  1  0  0  3  0  0  0  0  0  0
   14.7540  -11.3020   86.5180 C   0  0  0  0  0  2  0  0  0  0  0  0
   15.8170  -11.7870   87.5140 C   0  0  1  0  0  3  0  0  0  0  0  0
   15.4190  -13.1320   88.1160 C   0  0  0  0  0  1  0  0  0  0  0  0
   17.1860  -11.8790   86.8320 C   0  0  0  0  0  2  0  0  0  0  0  0
   17.5470  -10.6240   86.1870 N   0  0  0  0  0  0  0  0  0  0  0  0
   18.8030  -10.0720   86.4240 C   0  0  0  0  0  0  0  0  0  0  0  0
   19.5890  -10.4880   87.2720 O   0  0  0  0  0  0  0  0  0  0  0  0
   16.5620  -10.0870   85.2340 C   0  0  0  0  0  2  0  0  0  0  0  0
   18.3230   -7.3590   87.2140 N   0  0  0  0  0  0  0  0  0  0  0  0
   18.3460   -6.4440   88.2160 C   0  0  0  0  0  0  0  0  0  0  0  0
   17.4210   -6.5160   89.0410 O   0  0  0  0  0  0  0  0  0  0  0  0
   17.6070   -8.0460   87.4260 H   0  0  0  0  0  0  0  0  0  0  0  0
   19.4270   -5.4100   88.4300 C   0  0  0  0  0  2  0  0  0  0  0  0
   20.0750   -5.5500   89.8000 C   0  0  0  0  0  2  0  0  0  0  0  0
   20.9190   -6.8110   89.8770 C   0  0  0  0  0  0  0  0  0  0  0  0
   20.4890   -7.6940   90.6730 O   0  0  0  0  0  1  0  0  0  0  0  0
   21.9370   -6.8230   89.1330 O   0  0  0  0  0  0  0  0  0  0  0  0
  1  7  1  0  0  0  0
  1 15  1  0  0  0  0
  2  1  2  0  0  0  0
  3  5  2  0  0  0  0
  3  2  1  0  0  0  0
  4  3  1  0  0  0  0
  5  6  1  0  0  0  0
  6  7  2  0  0  0  0
  7 18  1  0  0  0  0
  9  8  1  6  0  0  0
  9 10  1  0  0  0  0
 10 11  1  0  0  0  0
 11 12  1  6  0  0  0
 13 11  1  0  0  0  0
 14 15  1  0  0  0  0
 14 13  1  0  0  0  0
 15 16  2  0  0  0  0
 17  9  1  0  0  0  0
 17 14  1  0  0  0  0
 18 21  1  0  0  0  0
 18 19  1  0  0  0  0
 19 22  1  0  0  0  0
 19 20  2  0  0  0  0
 22 23  1  0  0  0  0
 23 24  1  0  0  0  0
 24 25  1  0  0  0  0
 26 24  2  0  0  0  0
M  END
>  <minimizedAffinity>
-6.92724037

$$$$

 OpenBabel08162216463D

 26 27  0  0  1  0  0  0  0  0999 V2000
  -11.6070   -3.4030   -7.6120 C   0  0  0  0  0  0  0  0  0  0  0  0
  -12.7780   -4.1740   -7.5980 C   0  0  0  0  0  3  0  0  0  0  0  0
  -12.9690   -5.1290   -8.5840 C   0  0  0  0  0  0  0  0  0  0  0  0
  -14.5290   -6.1940   -8.5770 Br  0  0  0  0  0  0  0  0  0  0  0  0
  -12.0120   -5.3020   -9.5770 C   0  0  0  0  0  3  0  0  0  0  0  0
  -10.8550   -4.5070   -9.5990 C   0  0  0  0  0  3  0  0  0  0  0  0
  -10.6210   -3.5440   -8.6190 C   0  0  0  0  0  0  0  0  0  0  0  0
  -14.0440    0.9510   -9.0250 C   0  0  0  0  0  1  0  0  0  0  0  0
  -13.0090    0.5440   -7.9800 C   0  0  1  0  0  3  0  0  0  0  0  0
  -13.0860    1.4610   -6.7500 C   0  0  0  0  0  2  0  0  0  0  0  0
  -12.0730    1.0250   -5.6830 C   0  0  1  0  0  3  0  0  0  0  0  0
  -12.1780    1.9110   -4.4440 C   0  0  0  0  0  1  0  0  0  0  0  0
  -12.2810   -0.4480   -5.3180 C   0  0  0  0  0  2  0  0  0  0  0  0
  -12.2580   -1.2990   -6.5000 N   0  0  0  0  0  0  0  0  0  0  0  0
  -11.4560   -2.4370   -6.5060 C   0  0  0  0  0  0  0  0  0  0  0  0
  -10.6310   -2.7030   -5.6350 O   0  0  0  0  0  0  0  0  0  0  0  0
  -13.1910   -0.9260   -7.5760 C   0  0  0  0  0  2  0  0  0  0  0  0
   -9.5100   -2.6760   -8.5970 N   0  0  0  0  0  0  0  0  0  0  0  0
   -8.2260   -2.7260   -8.1610 C   0  0  0  0  0  0  0  0  0  0  0  0
   -7.5050   -1.7660   -8.4760 O   0  0  0  0  0  0  0  0  0  0  0  0
   -9.6790   -1.7540   -8.9850 H   0  0  0  0  0  0  0  0  0  0  0  0
   -7.6420   -3.8120   -7.2860 C   0  0  0  0  0  2  0  0  0  0  0  0
   -6.5410   -3.2750   -6.3830 C   0  0  0  0  0  2  0  0  0  0  0  0
   -7.1170   -2.7360   -5.0850 C   0  0  0  0  0  0  0  0  0  0  0  0
   -6.9580   -1.4960   -4.9030 O   0  0  0  0  0  0  0  0  0  0  0  0
   -7.6890   -3.5910   -4.3540 O   0  0  0  0  0  1  0  0  0  0  0  0
  1  2  1  0  0  0  0
  1 15  1  0  0  0  0
  3  4  1  0  0  0  0
  3  2  2  0  0  0  0
  5  3  1  0  0  0  0
  6  5  2  0  0  0  0
  6  7  1  0  0  0  0
  7 18  1  0  0  0  0
  7  1  2  0  0  0  0
  9  8  1  6  0  0  0
  9 17  1  0  0  0  0
  9 10  1  0  0  0  0
 10 11  1  0  0  0  0
 11 13  1  0  0  0  0
 11 12  1  1  0  0  0
 14 13  1  0  0  0  0
 15 14  1  0  0  0  0
 15 16  2  0  0  0  0
 17 14  1  0  0  0  0
 18 19  1  0  0  0  0
 19 22  1  0  0  0  0
 20 19  2  0  0  0  0
 21 18  1  0  0  0  0
 22 23  1  0  0  0  0
 23 24  1  0  0  0  0
 24 25  2  0  0  0  0
 24 26  1  0  0  0  0
M  END
>  <minimizedAffinity>
-6.92471886

$$$$

 OpenBabel08162216463D

 26 27  0  0  1  0  0  0  0  0999 V2000
    8.4180    3.1130   30.7200 C   0  0  0  0  0  0  0  0  0  0  0  0
    9.5760    3.4730   30.0150 C   0  0  0  0  0  3  0  0  0  0  0  0
   10.5880    2.5390   29.8580 C   0  0  0  0  0  0  0  0  0  0  0  0
   12.1500    2.9920   28.8970 Br  0  0  0  0  0  0  0  0  0  0  0  0
   10.4530    1.2700   30.4080 C   0  0  0  0  0  3  0  0  0  0  0  0
    9.3010    0.9280   31.1360 C   0  0  0  0  0  3  0  0  0  0  0  0
    8.2570    1.8340   31.3060 C   0  0  0  0  0  0  0  0  0  0  0  0
    8.9600    5.4730   35.3050 C   0  0  0  0  0  1  0  0  0  0  0  0
    7.8770    5.3540   34.2360 C   0  0  1  0  0  3  0  0  0  0  0  0
    6.9690    6.5920   34.2390 C   0  0  0  0  0  2  0  0  0  0  0  0
    5.9060    6.4890   33.1360 C   0  0  1  0  0  3  0  0  0  0  0  0
    5.0300    7.7390   33.1110 C   0  0  0  0  0  1  0  0  0  0  0  0
    6.5690    6.2620   31.7740 C   0  0  0  0  0  2  0  0  0  0  0  0
    7.4680    5.1160   31.8010 N   0  0  0  0  0  0  0  0  0  0  0  0
    7.3670    4.1470   30.8080 C   0  0  0  0  0  0  0  0  0  0  0  0
    6.4610    4.1000   29.9790 O   0  0  0  0  0  0  0  0  0  0  0  0
    8.5010    5.1370   32.8500 C   0  0  0  0  0  2  0  0  0  0  0  0
    7.0920    1.5830   32.0600 N   0  0  0  0  0  0  0  0  0  0  0  0
    5.8690    1.0410   31.8360 C   0  0  0  0  0  0  0  0  0  0  0  0
    5.1580    0.8640   32.8390 O   0  0  0  0  0  0  0  0  0  0  0  0
    7.1330    1.8900   33.0270 H   0  0  0  0  0  0  0  0  0  0  0  0
    5.2980    0.7030   30.4770 C   0  0  0  0  0  2  0  0  0  0  0  0
    5.7070   -0.6920   30.0270 C   0  0  0  0  0  2  0  0  0  0  0  0
    4.7100   -1.7330   30.5060 C   0  0  0  0  0  0  0  0  0  0  0  0
    5.1830   -2.6060   31.2870 O   0  0  0  0  0  1  0  0  0  0  0  0
    3.5340   -1.5920   30.0700 O   0  0  0  0  0  0  0  0  0  0  0  0
  1 15  1  0  0  0  0
  1  7  1  0  0  0  0
  2  1  2  0  0  0  0
  3  2  1  0  0  0  0
  3  5  2  0  0  0  0
  4  3  1  0  0  0  0
  5  6  1  0  0  0  0
  6  7  2  0  0  0  0
  7 18  1  0  0  0  0
  9 10  1  0  0  0  0
  9  8  1  1  0  0  0
 11 12  1  6  0  0  0
 11 10  1  0  0  0  0
 13 14  1  0  0  0  0
 13 11  1  0  0  0  0
 14 17  1  0  0  0  0
 15 14  1  0  0  0  0
 16 15  2  0  0  0  0
 17  9  1  0  0  0  0
 18 21  1  0  0  0  0
 19 18  1  0  0  0  0
 19 20  2  0  0  0  0
 22 19  1  0  0  0  0
 23 22  1  0  0  0  0
 23 24  1  0  0  0  0
 24 25  1  0  0  0  0
 26 24  2  0  0  0  0
M  END
>  <minimizedAffinity>
-6.87540579

$$$$

 OpenBabel08162216463D

 26 27  0  0  1  0  0  0  0  0999 V2000
   19.3110   -9.1130   85.8720 C   0  0  0  0  0  0  0  0  0  0  0  0
   19.7530   -9.3340   84.5600 C   0  0  0  0  0  3  0  0  0  0  0  0
   20.3170   -8.2850   83.8520 C   0  0  0  0  0  0  0  0  0  0  0  0
   20.9380   -8.5600   82.0890 Br  0  0  0  0  0  0  0  0  0  0  0  0
   20.4260   -7.0300   84.4400 C   0  0  0  0  0  3  0  0  0  0  0  0
   19.9560   -6.8110   85.7460 C   0  0  0  0  0  3  0  0  0  0  0  0
   19.3930   -7.8440   86.4930 C   0  0  0  0  0  0  0  0  0  0  0  0
   14.2180   -9.2430   84.9050 C   0  0  0  0  0  1  0  0  0  0  0  0
   15.1750   -9.8680   85.9170 C   0  0  1  0  0  3  0  0  0  0  0  0
   14.6340  -11.2150   86.4200 C   0  0  0  0  0  2  0  0  0  0  0  0
   15.6170  -11.8620   87.4060 C   0  0  1  0  0  3  0  0  0  0  0  0
   15.0990  -13.2200   87.8730 C   0  0  0  0  0  1  0  0  0  0  0  0
   17.0030  -11.9980   86.7670 C   0  0  0  0  0  2  0  0  0  0  0  0
   17.4800  -10.7230   86.2480 N   0  0  0  0  0  0  0  0  0  0  0  0
   18.7610  -10.2890   86.5760 C   0  0  0  0  0  0  0  0  0  0  0  0
   19.4800  -10.8330   87.4100 O   0  0  0  0  0  0  0  0  0  0  0  0
   16.5760  -10.0340   85.3110 C   0  0  0  0  0  2  0  0  0  0  0  0
   18.8570   -7.6940   87.7890 N   0  0  0  0  0  0  0  0  0  0  0  0
   17.6310   -7.4780   88.3310 C   0  0  0  0  0  0  0  0  0  0  0  0
   17.5610   -7.5600   89.5690 O   0  0  0  0  0  0  0  0  0  0  0  0
   19.5360   -7.7350   88.5420 H   0  0  0  0  0  0  0  0  0  0  0  0
   16.3900   -7.0920   87.5600 C   0  0  0  0  0  2  0  0  0  0  0  0
   16.5630   -5.7580   86.8480 C   0  0  0  0  0  2  0  0  0  0  0  0
   15.4210   -5.5050   85.8790 C   0  0  0  0  0  0  0  0  0  0  0  0
   15.7580   -5.4310   84.6640 O   0  0  0  0  0  0  0  0  0  0  0  0
   14.2790   -5.4100   86.4080 O   0  0  0  0  0  1  0  0  0  0  0  0
  1  7  1  0  0  0  0
  1 15  1  0  0  0  0
  2  1  2  0  0  0  0
  3  5  2  0  0  0  0
  3  2  1  0  0  0  0
  4  3  1  0  0  0  0
  5  6  1  0  0  0  0
  6  7  2  0  0  0  0
  7 18  1  0  0  0  0
  9  8  1  6  0  0  0
  9 10  1  0  0  0  0
 10 11  1  0  0  0  0
 11 12  1  6  0  0  0
 13 11  1  0  0  0  0
 14 15  1  0  0  0  0
 14 13  1  0  0  0  0
 15 16  2  0  0  0  0
 17  9  1  0  0  0  0
 17 14  1  0  0  0  0
 18 19  1  0  0  0  0
 18 21  1  0  0  0  0
 19 20  2  0  0  0  0
 22 19  1  0  0  0  0
 23 22  1  0  0  0  0
 24 26  1  0  0  0  0
 24 23  1  0  0  0  0
 25 24  2  0  0  0  0
M  END
>  <minimizedAffinity>
-6.85202932

$$$$

 OpenBabel08162216463D

 26 27  0  0  1  0  0  0  0  0999 V2000
    6.6380    1.6820   31.6670 C   0  0  0  0  0  0  0  0  0  0  0  0
    5.5760    0.8510   31.2800 C   0  0  0  0  0  3  0  0  0  0  0  0
    4.5380    0.6240   32.1700 C   0  0  0  0  0  0  0  0  0  0  0  0
    3.0860   -0.4750   31.6660 Br  0  0  0  0  0  0  0  0  0  0  0  0
    4.5660    1.2050   33.4320 C   0  0  0  0  0  3  0  0  0  0  0  0
    5.6470    2.0130   33.8210 C   0  0  0  0  0  3  0  0  0  0  0  0
    6.7040    2.2740   32.9510 C   0  0  0  0  0  0  0  0  0  0  0  0
   10.5110   -1.6150   32.6730 C   0  0  0  0  0  1  0  0  0  0  0  0
   10.3200   -0.3400   31.8580 C   0  0  1  0  0  3  0  0  0  0  0  0
   11.2930   -0.2990   30.6710 C   0  0  0  0  0  2  0  0  0  0  0  0
   11.0710    0.9650   29.8290 C   0  0  1  0  0  3  0  0  0  0  0  0
   12.0100    0.9850   28.6250 C   0  0  0  0  0  1  0  0  0  0  0  0
    9.6090    1.0590   29.3800 C   0  0  0  0  0  2  0  0  0  0  0  0
    8.6960    0.9660   30.5120 N   0  0  0  0  0  0  0  0  0  0  0  0
    7.6840    1.9100   30.6500 C   0  0  0  0  0  0  0  0  0  0  0  0
    7.5910    2.9260   29.9660 O   0  0  0  0  0  0  0  0  0  0  0  0
    8.8670   -0.2130   31.3780 C   0  0  0  0  0  2  0  0  0  0  0  0
    7.8450    3.0350   33.2820 N   0  0  0  0  0  0  0  0  0  0  0  0
    8.1000    4.2040   33.9220 C   0  0  0  0  0  0  0  0  0  0  0  0
    9.2970    4.4560   34.1390 O   0  0  0  0  0  0  0  0  0  0  0  0
    8.7260    2.6490   32.9590 H   0  0  0  0  0  0  0  0  0  0  0  0
    7.0620    5.2260   34.3230 C   0  0  0  0  0  2  0  0  0  0  0  0
    7.2330    6.5300   33.5570 C   0  0  0  0  0  2  0  0  0  0  0  0
    6.3800    6.5400   32.3000 C   0  0  0  0  0  0  0  0  0  0  0  0
    5.9910    5.4030   31.9100 O   0  0  0  0  0  1  0  0  0  0  0  0
    6.1620    7.6810   31.8070 O   0  0  0  0  0  0  0  0  0  0  0  0
  1  7  1  0  0  0  0
  2  1  2  0  0  0  0
  2  3  1  0  0  0  0
  3  5  2  0  0  0  0
  4  3  1  0  0  0  0
  5  6  1  0  0  0  0
  7 18  1  0  0  0  0
  7  6  2  0  0  0  0
  9  8  1  6  0  0  0
 10  9  1  0  0  0  0
 11 12  1  6  0  0  0
 11 10  1  0  0  0  0
 13 11  1  0  0  0  0
 13 14  1  0  0  0  0
 14 15  1  0  0  0  0
 14 17  1  0  0  0  0
 15  1  1  0  0  0  0
 16 15  2  0  0  0  0
 17  9  1  0  0  0  0
 18 19  1  0  0  0  0
 19 20  2  0  0  0  0
 19 22  1  0  0  0  0
 21 18  1  0  0  0  0
 23 22  1  0  0  0  0
 24 23  1  0  0  0  0
 25 24  1  0  0  0  0
 26 24  2  0  0  0  0
M  END
>  <minimizedAffinity>
-6.82136202

$$$$

 OpenBabel08162216463D

 26 27  0  0  1  0  0  0  0  0999 V2000
    7.2250    4.1380   31.5370 C   0  0  0  0  0  0  0  0  0  0  0  0
    6.2630    5.1010   31.8740 C   0  0  0  0  0  3  0  0  0  0  0  0
    6.6500    6.2140   32.6030 C   0  0  0  0  0  0  0  0  0  0  0  0
    5.3780    7.5360   33.0530 Br  0  0  0  0  0  0  0  0  0  0  0  0
    7.9730    6.3570   33.0020 C   0  0  0  0  0  3  0  0  0  0  0  0
    8.9240    5.3730   32.6840 C   0  0  0  0  0  3  0  0  0  0  0  0
    8.5770    4.2460   31.9420 C   0  0  0  0  0  0  0  0  0  0  0  0
    6.1340    0.2560   34.7970 C   0  0  0  0  0  1  0  0  0  0  0  0
    6.3810    0.4150   33.3000 C   0  0  1  0  0  3  0  0  0  0  0  0
    5.6430   -0.6730   32.5060 C   0  0  0  0  0  2  0  0  0  0  0  0
    5.8590   -0.4880   30.9980 C   0  0  1  0  0  3  0  0  0  0  0  0
    5.0910   -1.5440   30.2070 C   0  0  0  0  0  1  0  0  0  0  0  0
    5.4430    0.9230   30.5680 C   0  0  0  0  0  2  0  0  0  0  0  0
    6.1110    1.9430   31.3650 N   0  0  0  0  0  0  0  0  0  0  0  0
    6.7450    3.0030   30.7230 C   0  0  0  0  0  0  0  0  0  0  0  0
    6.9230    3.0660   29.5090 O   0  0  0  0  0  0  0  0  0  0  0  0
    5.9650    1.8140   32.8240 C   0  0  0  0  0  2  0  0  0  0  0  0
    9.4600    3.1940   31.6230 N   0  0  0  0  0  0  0  0  0  0  0  0
   10.3640    2.9260   30.6470 C   0  0  0  0  0  0  0  0  0  0  0  0
   11.0670    1.9160   30.8170 O   0  0  0  0  0  0  0  0  0  0  0  0
    9.4300    2.4010   32.2560 H   0  0  0  0  0  0  0  0  0  0  0  0
   10.5280    3.7130   29.3670 C   0  0  0  0  0  2  0  0  0  0  0  0
   11.4510    4.9090   29.5580 C   0  0  0  0  0  2  0  0  0  0  0  0
   12.2220    5.2100   28.2850 C   0  0  0  0  0  0  0  0  0  0  0  0
   12.0030    6.3490   27.7840 O   0  0  0  0  0  0  0  0  0  0  0  0
   12.9910    4.2900   27.8920 O   0  0  0  0  0  1  0  0  0  0  0  0
  1  2  2  0  0  0  0
  1  7  1  0  0  0  0
  2  3  1  0  0  0  0
  3  5  2  0  0  0  0
  3  4  1  0  0  0  0
  6  5  1  0  0  0  0
  7  6  2  0  0  0  0
  9  8  1  1  0  0  0
 10  9  1  0  0  0  0
 11 12  1  6  0  0  0
 11 10  1  0  0  0  0
 13 11  1  0  0  0  0
 13 14  1  0  0  0  0
 14 17  1  0  0  0  0
 15 14  1  0  0  0  0
 15  1  1  0  0  0  0
 16 15  2  0  0  0  0
 17  9  1  0  0  0  0
 18  7  1  0  0  0  0
 18 21  1  0  0  0  0
 19 20  2  0  0  0  0
 19 18  1  0  0  0  0
 22 23  1  0  0  0  0
 22 19  1  0  0  0  0
 24 23  1  0  0  0  0
 25 24  2  0  0  0  0
 26 24  1  0  0  0  0
M  END
>  <minimizedAffinity>
-6.73342085

$$$$

 OpenBabel08162216463D

 26 27  0  0  1  0  0  0  0  0999 V2000
    7.7160   -0.5620   30.3820 C   0  0  0  0  0  0  0  0  0  0  0  0
    8.0270    0.6140   29.6850 C   0  0  0  0  0  3  0  0  0  0  0  0
    9.3560    0.9700   29.5210 C   0  0  0  0  0  0  0  0  0  0  0  0
    9.8030    2.5400   28.5690 Br  0  0  0  0  0  0  0  0  0  0  0  0
   10.3600    0.1720   30.0570 C   0  0  0  0  0  3  0  0  0  0  0  0
   10.0380   -0.9900   30.7780 C   0  0  0  0  0  3  0  0  0  0  0  0
    8.7150   -1.3880   30.9540 C   0  0  0  0  0  0  0  0  0  0  0  0
    5.9610    1.4490   34.8280 C   0  0  0  0  0  1  0  0  0  0  0  0
    5.4960    0.4000   33.8210 C   0  0  1  0  0  3  0  0  0  0  0  0
    3.9650    0.2890   33.8160 C   0  0  0  0  0  2  0  0  0  0  0  0
    3.4970   -0.7370   32.7740 C   0  0  1  0  0  3  0  0  0  0  0  0
    1.9730   -0.8170   32.7390 C   0  0  0  0  0  1  0  0  0  0  0  0
    4.0560   -0.3860   31.3910 C   0  0  0  0  0  2  0  0  0  0  0  0
    5.5040   -0.2320   31.4230 N   0  0  0  0  0  0  0  0  0  0  0  0
    6.2810   -0.8970   30.4790 C   0  0  0  0  0  0  0  0  0  0  0  0
    5.8470   -1.7420   29.7000 O   0  0  0  0  0  0  0  0  0  0  0  0
    6.0250    0.7210   32.4160 C   0  0  0  0  0  2  0  0  0  0  0  0
    8.3090   -2.5130   31.7020 N   0  0  0  0  0  0  0  0  0  0  0  0
    8.0350   -3.8180   31.4520 C   0  0  0  0  0  0  0  0  0  0  0  0
    7.8470   -4.5360   32.4480 O   0  0  0  0  0  0  0  0  0  0  0  0
    8.1520   -2.3370   32.6890 H   0  0  0  0  0  0  0  0  0  0  0  0
    7.8860   -4.4330   30.0800 C   0  0  0  0  0  2  0  0  0  0  0  0
    6.6380   -5.2990   29.9850 C   0  0  0  0  0  2  0  0  0  0  0  0
    5.9370   -5.1020   28.6520 C   0  0  0  0  0  0  0  0  0  0  0  0
    6.6730   -5.2500   27.6350 O   0  0  0  0  0  0  0  0  0  0  0  0
    4.7090   -4.8250   28.7260 O   0  0  0  0  0  1  0  0  0  0  0  0
  1 15  1  0  0  0  0
  1  7  1  0  0  0  0
  2  1  2  0  0  0  0
  3  2  1  0  0  0  0
  3  5  2  0  0  0  0
  4  3  1  0  0  0  0
  5  6  1  0  0  0  0
  6  7  2  0  0  0  0
  7 18  1  0  0  0  0
  9  8  1  1  0  0  0
 10  9  1  0  0  0  0
 11 12  1  6  0  0  0
 11 10  1  0  0  0  0
 13 14  1  0  0  0  0
 13 11  1  0  0  0  0
 14 17  1  0  0  0  0
 15 14  1  0  0  0  0
 16 15  2  0  0  0  0
 17  9  1  0  0  0  0
 18 21  1  0  0  0  0
 19 18  1  0  0  0  0
 19 20  2  0  0  0  0
 22 19  1  0  0  0  0
 23 22  1  0  0  0  0
 24 26  1  0  0  0  0
 24 23  1  0  0  0  0
 25 24  2  0  0  0  0
M  END
>  <minimizedAffinity>
-6.70491934

$$$$
