REMARK  Name = 
REMARK  7 active torsions:
REMARK  status: ('A' for Active; 'I' for Inactive)
REMARK    1  A    between atoms: C_1  and  C_2
REMARK    2  A    between atoms: C_4  and  C_5
REMARK    3  A    between atoms: C_8  and  C_10
REMARK    4  A    between atoms: C_16  and  N_17
REMARK    5  A    between atoms: C_18  and  C_20
REMARK    6  A    between atoms: C_20  and  C_21
REMARK    7  A    between atoms: C_21  and  C_22
REMARK                            x       y       z     vdW  Elec       q    Type
REMARK                         _______ _______ _______ _____ _____    ______ ____
ROOT
ATOM      1  C   UNL     1       1.166   3.508  -2.402  0.00  0.00    +0.059 A 
ATOM      2  C   UNL     1       1.810   3.051  -3.561  0.00  0.00    +0.030 A 
ATOM      3  C   UNL     1       2.976   3.675  -3.975  0.00  0.00    +0.019 A 
ATOM      4 BR   UNL     1       3.874   3.067  -5.522  0.00  0.00    -0.050 Br
ATOM      5  C   UNL     1       3.484   4.748  -3.252  0.00  0.00    +0.017 A 
ATOM      6  C   UNL     1       2.817   5.216  -2.108  0.00  0.00    +0.025 A 
ATOM      7  C   UNL     1       1.649   4.608  -1.653  0.00  0.00    +0.046 A 
ENDROOT
BRANCH   1  15
ATOM      8  C   UNL     1       2.623  -0.066   1.061  0.00  0.00    +0.009 C 
ATOM      9  C   UNL     1       1.412   0.189   0.168  0.00  0.00    +0.004 C 
ATOM     10  C   UNL     1       0.142  -0.414   0.785  0.00  0.00    +0.009 C 
ATOM     11  C   UNL     1      -1.082  -0.121  -0.094  0.00  0.00    +0.004 C 
ATOM     12  C   UNL     1      -2.351  -0.684   0.541  0.00  0.00    +0.009 C 
ATOM     13  C   UNL     1      -1.217   1.386  -0.337  0.00  0.00    +0.111 C 
ATOM     14  N   UNL     1       0.013   1.953  -0.873  0.00  0.00    -0.297 N 
ATOM     15  C   UNL     1      -0.046   2.766  -2.001  0.00  0.00    +0.248 C 
ATOM     16  O   UNL     1      -1.054   2.922  -2.686  0.00  0.00    -0.270 OA
ATOM     17  C   UNL     1       1.233   1.692  -0.091  0.00  0.00    +0.111 C 
ENDBRANCH   1  15
BRANCH   7  18
ATOM     18  N   UNL     1       0.897   5.047  -0.543  0.00  0.00    -0.285 N 
ATOM     19  C   UNL     1       1.089   5.877   0.513  0.00  0.00    +0.218 C 
ATOM     20  O   UNL     1       0.088   6.114   1.209  0.00  0.00    -0.275 OA
ATOM     21  H   UNL     1      -0.032   4.646  -0.469  0.00  0.00    +0.155 HD
BRANCH  19  22
ATOM     22  C   UNL     1       2.416   6.469   0.930  0.00  0.00    +0.102 C 
BRANCH  22  23
ATOM     23  C   UNL     1       3.208   5.510   1.807  0.00  0.00    +0.061 C 
BRANCH  23  24
ATOM     24  C   UNL     1       4.016   4.540   0.962  0.00  0.00    +0.042 C 
ATOM     25  O   UNL     1       4.922   5.070   0.259  0.00  0.00    -0.550 OA
ATOM     26  O   UNL     1       3.687   3.327   1.074  0.00  0.00    -0.550 OA
ENDBRANCH  23  24
ENDBRANCH  22  23
ENDBRANCH  19  22
ENDBRANCH   7  18
TORSDOF 5
