
 OpenBabel08162216463D

 26 27  0  0  1  0  0  0  0  0999 V2000
    7.7160   -0.5620   30.3820 C   0  0  0  0  0  0  0  0  0  0  0  0
    8.0270    0.6140   29.6850 C   0  0  0  0  0  3  0  0  0  0  0  0
    9.3560    0.9700   29.5210 C   0  0  0  0  0  0  0  0  0  0  0  0
    9.8030    2.5400   28.5690 Br  0  0  0  0  0  0  0  0  0  0  0  0
   10.3600    0.1720   30.0570 C   0  0  0  0  0  3  0  0  0  0  0  0
   10.0380   -0.9900   30.7780 C   0  0  0  0  0  3  0  0  0  0  0  0
    8.7150   -1.3880   30.9540 C   0  0  0  0  0  0  0  0  0  0  0  0
    5.9610    1.4490   34.8280 C   0  0  0  0  0  1  0  0  0  0  0  0
    5.4960    0.4000   33.8210 C   0  0  1  0  0  3  0  0  0  0  0  0
    3.9650    0.2890   33.8160 C   0  0  0  0  0  2  0  0  0  0  0  0
    3.4970   -0.7370   32.7740 C   0  0  1  0  0  3  0  0  0  0  0  0
    1.9730   -0.8170   32.7390 C   0  0  0  0  0  1  0  0  0  0  0  0
    4.0560   -0.3860   31.3910 C   0  0  0  0  0  2  0  0  0  0  0  0
    5.5040   -0.2320   31.4230 N   0  0  0  0  0  0  0  0  0  0  0  0
    6.2810   -0.8970   30.4790 C   0  0  0  0  0  0  0  0  0  0  0  0
    5.8470   -1.7420   29.7000 O   0  0  0  0  0  0  0  0  0  0  0  0
    6.0250    0.7210   32.4160 C   0  0  0  0  0  2  0  0  0  0  0  0
    8.3090   -2.5130   31.7020 N   0  0  0  0  0  0  0  0  0  0  0  0
    8.0350   -3.8180   31.4520 C   0  0  0  0  0  0  0  0  0  0  0  0
    7.8470   -4.5360   32.4480 O   0  0  0  0  0  0  0  0  0  0  0  0
    8.1520   -2.3370   32.6890 H   0  0  0  0  0  0  0  0  0  0  0  0
    7.8860   -4.4330   30.0800 C   0  0  0  0  0  2  0  0  0  0  0  0
    6.6380   -5.2990   29.9850 C   0  0  0  0  0  2  0  0  0  0  0  0
    5.9370   -5.1020   28.6520 C   0  0  0  0  0  0  0  0  0  0  0  0
    6.6730   -5.2500   27.6350 O   0  0  0  0  0  0  0  0  0  0  0  0
    4.7090   -4.8250   28.7260 O   0  0  0  0  0  1  0  0  0  0  0  0
  1 15  1  0  0  0  0
  1  7  1  0  0  0  0
  2  1  2  0  0  0  0
  3  2  1  0  0  0  0
  3  5  2  0  0  0  0
  4  3  1  0  0  0  0
  5  6  1  0  0  0  0
  6  7  2  0  0  0  0
  7 18  1  0  0  0  0
  9  8  1  1  0  0  0
 10  9  1  0  0  0  0
 11 12  1  6  0  0  0
 11 10  1  0  0  0  0
 13 14  1  0  0  0  0
 13 11  1  0  0  0  0
 14 17  1  0  0  0  0
 15 14  1  0  0  0  0
 16 15  2  0  0  0  0
 17  9  1  0  0  0  0
 18 21  1  0  0  0  0
 19 18  1  0  0  0  0
 19 20  2  0  0  0  0
 22 19  1  0  0  0  0
 23 22  1  0  0  0  0
 24 26  1  0  0  0  0
 24 23  1  0  0  0  0
 25 24  2  0  0  0  0
M  END
>  <minimizedAffinity>
-6.70491934

$$$$
