REMARK  Name = 
REMARK  9 active torsions:
REMARK  status: ('A' for Active; 'I' for Inactive)
REMARK    1  A    between atoms: C_1  and  O_2
REMARK    2  A    between atoms: O_2  and  C_3
REMARK    3  A    between atoms: C_5  and  C_6
REMARK    4  A    between atoms: C_6  and  S_7
REMARK    5  A    between atoms: S_7  and  C_8
REMARK    6  A    between atoms: C_10  and  C_11
REMARK    7  A    between atoms: C_19  and  C_20
REMARK    8  A    between atoms: C_26  and  O_27
REMARK    9  A    between atoms: O_27  and  C_28
REMARK                            x       y       z     vdW  Elec       q    Type
REMARK                         _______ _______ _______ _____ _____    ______ ____
ROOT
ATOM      1  C   UNL     1       0.179  -6.422  -2.029  0.00  0.00    +0.170 A 
ATOM      2  N   UNL     1       1.254  -5.768  -1.766  0.00  0.00    -0.222 NA
ATOM      3  C   UNL     1       2.344  -6.477  -1.326  0.00  0.00    +0.098 A 
ATOM      4  C   UNL     1       2.343  -7.807  -1.123  0.00  0.00    +0.142 A 
ATOM      5  C   UNL     1       1.089  -8.533  -1.409  0.00  0.00    +0.270 A 
ATOM      6  O   UNL     1       0.971  -9.742  -1.250  0.00  0.00    -0.266 OA
ATOM      7  N   UNL     1       0.055  -7.764  -1.866  0.00  0.00    -0.301 N 
ATOM      8  H   UNL     1      -0.823  -8.215  -2.072  0.00  0.00    +0.171 HD
ENDROOT
BRANCH   3   9
ATOM      9  C   UNL     1       3.548  -5.656  -1.074  0.00  0.00    +0.020 A 
ATOM     10  C   UNL     1       3.623  -4.937   0.130  0.00  0.00    +0.013 A 
ATOM     11  C   UNL     1       4.722  -4.119   0.399  0.00  0.00    +0.021 A 
ATOM     12  C   UNL     1       5.749  -4.011  -0.536  0.00  0.00    +0.042 A 
ATOM     13 CL   UNL     1       7.091  -2.985  -0.211  0.00  0.00    -0.083 Cl
ATOM     14  C   UNL     1       5.691  -4.711  -1.738  0.00  0.00    +0.040 A 
ATOM     15  C   UNL     1       4.590  -5.528  -2.009  0.00  0.00    +0.052 A 
ATOM     16 CL   UNL     1       4.550  -6.352  -3.530  0.00  0.00    -0.083 Cl
ENDBRANCH   3   9
BRANCH   4  17
ATOM     17  C   UNL     1       3.556  -8.568  -0.614  0.00  0.00    +0.107 C 
ATOM     18  N   UNL     1       4.563  -9.199  -0.191  0.00  0.00    -0.191 NA
ENDBRANCH   4  17
BRANCH   1  19
ATOM     19  S   UNL     1      -1.265  -5.654  -2.595  0.00  0.00    -0.083 S 
BRANCH  19  20
ATOM     20  C   UNL     1      -0.578  -4.457  -3.780  0.00  0.00    +0.112 C 
BRANCH  20  23
ATOM     21  C   UNL     1       0.415  -1.408  -1.691  0.00  0.00    +0.124 A 
ATOM     22  C   UNL     1      -0.348  -2.431  -2.266  0.00  0.00    +0.050 A 
ATOM     23  C   UNL     1       0.221  -3.329  -3.177  0.00  0.00    -0.030 A 
ATOM     24  C   UNL     1       1.570  -3.158  -3.527  0.00  0.00    +0.050 A 
ATOM     25  C   UNL     1       2.343  -2.140  -2.961  0.00  0.00    +0.124 A 
ATOM     26  C   UNL     1       1.761  -1.264  -2.042  0.00  0.00    +0.091 A 
BRANCH  21  28
ATOM     27  C   UNL     1       0.470   0.381  -0.122  0.00  0.00    +0.277 C 
ATOM     28  O   UNL     1      -0.271  -0.621  -0.805  0.00  0.00    -0.495 OA
ENDBRANCH  21  28
BRANCH  25  29
ATOM     29  O   UNL     1       3.644  -2.118  -3.385  0.00  0.00    -0.495 OA
ATOM     30  C   UNL     1       4.481  -1.097  -2.856  0.00  0.00    +0.277 C 
ENDBRANCH  25  29
ENDBRANCH  20  23
ENDBRANCH  19  20
ENDBRANCH   1  19
TORSDOF 7
