
 OpenBabel09122222393D

 30 32  0  0  0  0  0  0  0  0999 V2000
    6.1030   -6.3640    1.4820 C   0  0  0  0  0  0  0  0  0  0  0  0
    5.8080   -7.6110    1.3810 N   0  0  0  0  0  0  0  0  0  0  0  0
    4.7550   -8.0830    2.1250 C   0  0  0  0  0  0  0  0  0  0  0  0
    4.0380   -7.3260    2.9760 C   0  0  0  0  0  0  0  0  0  0  0  0
    4.4120   -5.9020    3.0930 C   0  0  0  0  0  0  0  0  0  0  0  0
    3.8360   -5.1240    3.8440 O   0  0  0  0  0  0  0  0  0  0  0  0
    5.4540   -5.5010    2.3040 N   0  0  0  0  0  0  0  0  0  0  0  0
    5.7480   -4.5370    2.3520 H   0  0  0  0  0  0  0  0  0  0  0  0
    4.4610   -9.5190    1.9310 C   0  0  0  0  0  0  0  0  0  0  0  0
    3.6860   -9.8950    0.8220 C   0  0  0  0  0  3  0  0  0  0  0  0
    3.3510  -11.2340    0.6130 C   0  0  0  0  0  3  0  0  0  0  0  0
    3.7840  -12.2040    1.5150 C   0  0  0  0  0  0  0  0  0  0  0  0
    3.3500  -13.8500    1.2680 Cl  0  0  0  0  0  0  0  0  0  0  0  0
    4.5480  -11.8510    2.6240 C   0  0  0  0  0  3  0  0  0  0  0  0
    4.8820  -10.5100    2.8340 C   0  0  0  0  0  0  0  0  0  0  0  0
    5.8060  -10.1190    4.2440 Cl  0  0  0  0  0  0  0  0  0  0  0  0
    2.8900   -7.8750    3.8070 C   0  0  0  0  0  2  0  0  0  0  0  0
    1.9370   -8.3300    4.4970 N   0  0  0  0  0  1  0  0  0  0  0  0
    7.4030   -5.6390    0.5980 S   0  0  0  0  0  0  0  0  0  0  0  0
    8.0870   -4.5130    1.8510 C   0  0  0  0  0  2  0  0  0  0  0  0
    9.9990   -2.0560   -0.3740 C   0  0  0  0  0  0  0  0  0  0  0  0
    9.4480   -3.2420    0.1240 C   0  0  0  0  0  3  0  0  0  0  0  0
    8.7170   -3.2500    1.3180 C   0  0  0  0  0  0  0  0  0  0  0  0
    8.5780   -2.0440    2.0230 C   0  0  0  0  0  3  0  0  0  0  0  0
    9.1250   -0.8530    1.5370 C   0  0  0  0  0  0  0  0  0  0  0  0
    9.8370   -0.8620    0.3360 C   0  0  0  0  0  3  0  0  0  0  0  0
   11.1590   -1.0140   -2.1730 C   0  0  0  0  0  1  0  0  0  0  0  0
   10.6700   -2.1990   -1.5600 O   0  0  0  0  0  0  0  0  0  0  0  0
    8.8850    0.2400    2.3250 O   0  0  0  0  0  0  0  0  0  0  0  0
    9.6780    1.3970    2.0880 C   0  0  0  0  0  1  0  0  0  0  0  0
  1  7  1  0  0  0  0
  2  1  2  0  0  0  0
  2  3  1  0  0  0  0
  3  4  2  0  0  0  0
  4  5  1  0  0  0  0
  4 17  1  0  0  0  0
  5  6  2  0  0  0  0
  7  8  1  0  0  0  0
  7  5  1  0  0  0  0
  9  3  1  0  0  0  0
  9 15  1  0  0  0  0
 10  9  2  0  0  0  0
 11 10  1  0  0  0  0
 11 12  2  0  0  0  0
 12 14  1  0  0  0  0
 13 12  1  0  0  0  0
 14 15  2  0  0  0  0
 15 16  1  0  0  0  0
 17 18  1  0  0  0  0
 19  1  1  0  0  0  0
 19 20  1  0  0  0  0
 21 22  2  0  0  0  0
 21 26  1  0  0  0  0
 22 23  1  0  0  0  0
 23 20  1  0  0  0  0
 23 24  2  0  0  0  0
 25 24  1  0  0  0  0
 25 29  1  0  0  0  0
 26 25  2  0  0  0  0
 27 28  1  0  0  0  0
 28 21  1  0  0  0  0
 30 29  1  0  0  0  0
M  END
>  <minimizedAffinity>
-7.3437295

$$$$
