
 OpenBabel09122222393D

 30 32  0  0  0  0  0  0  0  0999 V2000
    6.1320   -6.4300    1.4780 C   0  0  0  0  0  0  0  0  0  0  0  0
    5.8150   -7.6700    1.3620 N   0  0  0  0  0  0  0  0  0  0  0  0
    4.7590   -8.1340    2.1070 C   0  0  0  0  0  0  0  0  0  0  0  0
    4.0610   -7.3770    2.9720 C   0  0  0  0  0  0  0  0  0  0  0  0
    4.4600   -5.9610    3.1060 C   0  0  0  0  0  0  0  0  0  0  0  0
    3.9020   -5.1840    3.8710 O   0  0  0  0  0  0  0  0  0  0  0  0
    5.5030   -5.5660    2.3160 N   0  0  0  0  0  0  0  0  0  0  0  0
    5.8140   -4.6090    2.3750 H   0  0  0  0  0  0  0  0  0  0  0  0
    4.4390   -9.5620    1.8940 C   0  0  0  0  0  0  0  0  0  0  0  0
    3.6530   -9.9100    0.7840 C   0  0  0  0  0  3  0  0  0  0  0  0
    3.2940  -11.2400    0.5600 C   0  0  0  0  0  3  0  0  0  0  0  0
    3.7140  -12.2290    1.4470 C   0  0  0  0  0  0  0  0  0  0  0  0
    3.2510  -13.8640    1.1800 Cl  0  0  0  0  0  0  0  0  0  0  0  0
    4.4890  -11.9040    2.5570 C   0  0  0  0  0  3  0  0  0  0  0  0
    4.8470  -10.5720    2.7830 C   0  0  0  0  0  0  0  0  0  0  0  0
    5.7840  -10.2150    4.1930 Cl  0  0  0  0  0  0  0  0  0  0  0  0
    2.9090   -7.9170    3.8030 C   0  0  0  0  0  2  0  0  0  0  0  0
    1.9520   -8.3650    4.4930 N   0  0  0  0  0  1  0  0  0  0  0  0
    7.4380   -5.7150    0.5950 S   0  0  0  0  0  0  0  0  0  0  0  0
    8.1510   -4.6180    1.8590 C   0  0  0  0  0  2  0  0  0  0  0  0
    9.1460   -0.9390    1.5140 C   0  0  0  0  0  0  0  0  0  0  0  0
    8.5490   -2.1130    1.9870 C   0  0  0  0  0  3  0  0  0  0  0  0
    8.7590   -3.3390    1.3430 C   0  0  0  0  0  0  0  0  0  0  0  0
    9.5590   -3.3570    0.1890 C   0  0  0  0  0  3  0  0  0  0  0  0
   10.1610   -2.1910   -0.2940 C   0  0  0  0  0  0  0  0  0  0  0  0
    9.9510   -0.9810    0.3710 C   0  0  0  0  0  3  0  0  0  0  0  0
    9.5220    1.3810    1.8860 C   0  0  0  0  0  1  0  0  0  0  0  0
    8.8640    0.1770    2.2550 O   0  0  0  0  0  0  0  0  0  0  0  0
   10.9290   -2.3750   -1.4120 O   0  0  0  0  0  0  0  0  0  0  0  0
   11.1400   -1.2430   -2.2470 C   0  0  0  0  0  1  0  0  0  0  0  0
  1  7  1  0  0  0  0
  2  1  2  0  0  0  0
  2  3  1  0  0  0  0
  3  4  2  0  0  0  0
  4  5  1  0  0  0  0
  4 17  1  0  0  0  0
  5  6  2  0  0  0  0
  7  8  1  0  0  0  0
  7  5  1  0  0  0  0
  9  3  1  0  0  0  0
  9 15  1  0  0  0  0
 10  9  2  0  0  0  0
 11 10  1  0  0  0  0
 11 12  2  0  0  0  0
 12 14  1  0  0  0  0
 13 12  1  0  0  0  0
 14 15  2  0  0  0  0
 15 16  1  0  0  0  0
 17 18  1  0  0  0  0
 19  1  1  0  0  0  0
 19 20  1  0  0  0  0
 21 22  1  0  0  0  0
 21 28  1  0  0  0  0
 23 20  1  0  0  0  0
 23 22  2  0  0  0  0
 24 23  1  0  0  0  0
 25 24  2  0  0  0  0
 25 26  1  0  0  0  0
 26 21  2  0  0  0  0
 27 28  1  0  0  0  0
 29 25  1  0  0  0  0
 30 29  1  0  0  0  0
M  END
>  <minimizedAffinity>
-7.23933744

$$$$
