
 OpenBabel09122222393D

 30 32  0  0  0  0  0  0  0  0999 V2000
    6.8190   -5.4400    1.7240 C   0  0  0  0  0  0  0  0  0  0  0  0
    6.5050   -6.6850    1.7880 N   0  0  0  0  0  0  0  0  0  0  0  0
    5.3610   -7.0230    2.4670 C   0  0  0  0  0  0  0  0  0  0  0  0
    4.5700   -6.1350    3.0960 C   0  0  0  0  0  0  0  0  0  0  0  0
    4.9640   -4.7130    3.0290 C   0  0  0  0  0  0  0  0  0  0  0  0
    4.3250   -3.8210    3.5730 O   0  0  0  0  0  0  0  0  0  0  0  0
    6.1010   -4.4510    2.3150 N   0  0  0  0  0  0  0  0  0  0  0  0
    6.4120   -3.4950    2.2440 H   0  0  0  0  0  0  0  0  0  0  0  0
    5.0550   -8.4700    2.4700 C   0  0  0  0  0  0  0  0  0  0  0  0
    5.7060   -9.2870    3.4090 C   0  0  0  0  0  3  0  0  0  0  0  0
    5.4790  -10.6640    3.4280 C   0  0  0  0  0  3  0  0  0  0  0  0
    4.6050  -11.2340    2.5050 C   0  0  0  0  0  0  0  0  0  0  0  0
    4.3440  -12.9340    2.5170 Cl  0  0  0  0  0  0  0  0  0  0  0  0
    3.9540  -10.4430    1.5630 C   0  0  0  0  0  3  0  0  0  0  0  0
    4.1820   -9.0640    1.5410 C   0  0  0  0  0  0  0  0  0  0  0  0
    3.3740   -8.1300    0.3300 Cl  0  0  0  0  0  0  0  0  0  0  0  0
    3.3200   -6.5360    3.8610 C   0  0  0  0  0  2  0  0  0  0  0  0
    2.2810   -6.8690    4.4960 N   0  0  0  0  0  1  0  0  0  0  0  0
    8.2300   -4.8750    0.8960 S   0  0  0  0  0  0  0  0  0  0  0  0
    8.7110   -3.4730    1.9500 C   0  0  0  0  0  2  0  0  0  0  0  0
    9.4610    0.1770    1.0780 C   0  0  0  0  0  0  0  0  0  0  0  0
    8.9950   -0.9570    1.7540 C   0  0  0  0  0  3  0  0  0  0  0  0
    9.1760   -2.2380    1.2200 C   0  0  0  0  0  0  0  0  0  0  0  0
    9.8050   -2.3570   -0.0300 C   0  0  0  0  0  3  0  0  0  0  0  0
   10.2740   -1.2320   -0.7160 C   0  0  0  0  0  0  0  0  0  0  0  0
   10.0990    0.0360   -0.1580 C   0  0  0  0  0  3  0  0  0  0  0  0
   10.0790    2.4520    1.4090 C   0  0  0  0  0  1  0  0  0  0  0  0
    9.2300    1.3590    1.7310 O   0  0  0  0  0  0  0  0  0  0  0  0
   10.8850   -1.5130   -1.9080 O   0  0  0  0  0  0  0  0  0  0  0  0
   10.8640   -0.4960   -2.9020 C   0  0  0  0  0  1  0  0  0  0  0  0
  1  2  2  0  0  0  0
  1  7  1  0  0  0  0
  2  3  1  0  0  0  0
  3  9  1  0  0  0  0
  3  4  2  0  0  0  0
  4 17  1  0  0  0  0
  5  4  1  0  0  0  0
  5  6  2  0  0  0  0
  7  5  1  0  0  0  0
  8  7  1  0  0  0  0
  9 10  1  0  0  0  0
 10 11  2  0  0  0  0
 12 13  1  0  0  0  0
 12 11  1  0  0  0  0
 14 12  2  0  0  0  0
 15 14  1  0  0  0  0
 15  9  2  0  0  0  0
 16 15  1  0  0  0  0
 17 18  1  0  0  0  0
 19  1  1  0  0  0  0
 19 20  1  0  0  0  0
 21 28  1  0  0  0  0
 21 22  1  0  0  0  0
 23 22  2  0  0  0  0
 23 20  1  0  0  0  0
 24 23  1  0  0  0  0
 25 26  1  0  0  0  0
 25 24  2  0  0  0  0
 26 21  2  0  0  0  0
 27 28  1  0  0  0  0
 29 25  1  0  0  0  0
 30 29  1  0  0  0  0
M  END
>  <minimizedAffinity>
-7.39700794

$$$$
