
 OpenBabel09122222393D

 30 32  0  0  0  0  0  0  0  0999 V2000
    8.4340   -3.9320    1.8280 C   0  0  0  0  0  0  0  0  0  0  0  0
    7.4770   -4.5680    2.4050 N   0  0  0  0  0  0  0  0  0  0  0  0
    6.7440   -5.4480    1.6470 C   0  0  0  0  0  0  0  0  0  0  0  0
    6.9470   -5.6570    0.3330 C   0  0  0  0  0  0  0  0  0  0  0  0
    8.0360   -4.8970   -0.3120 C   0  0  0  0  0  0  0  0  0  0  0  0
    8.3030   -5.0000   -1.5030 O   0  0  0  0  0  0  0  0  0  0  0  0
    8.7370   -4.0590    0.5110 N   0  0  0  0  0  0  0  0  0  0  0  0
    9.4880   -3.5160    0.1150 H   0  0  0  0  0  0  0  0  0  0  0  0
    5.6820   -6.1600    2.3900 C   0  0  0  0  0  0  0  0  0  0  0  0
    5.7270   -7.5630    2.4340 C   0  0  0  0  0  3  0  0  0  0  0  0
    4.7280   -8.2830    3.0910 C   0  0  0  0  0  3  0  0  0  0  0  0
    3.6760   -7.6050    3.7040 C   0  0  0  0  0  0  0  0  0  0  0  0
    2.4360   -8.4970    4.4950 Cl  0  0  0  0  0  0  0  0  0  0  0  0
    3.6100   -6.2150    3.6670 C   0  0  0  0  0  3  0  0  0  0  0  0
    4.6090   -5.4940    3.0070 C   0  0  0  0  0  0  0  0  0  0  0  0
    4.4650   -3.7700    2.9620 Cl  0  0  0  0  0  0  0  0  0  0  0  0
    6.1080   -6.6200   -0.4910 C   0  0  0  0  0  2  0  0  0  0  0  0
    5.4110   -7.4190   -1.1750 N   0  0  0  0  0  1  0  0  0  0  0  0
    9.4380   -2.7990    2.6670 S   0  0  0  0  0  0  0  0  0  0  0  0
    8.5870   -1.2360    2.2860 C   0  0  0  0  0  2  0  0  0  0  0  0
   10.1030    1.8790    0.6610 C   0  0  0  0  0  0  0  0  0  0  0  0
    9.4100    1.0510    1.5520 C   0  0  0  0  0  3  0  0  0  0  0  0
    9.3010   -0.3250    1.3200 C   0  0  0  0  0  0  0  0  0  0  0  0
    9.8750   -0.8510    0.1510 C   0  0  0  0  0  3  0  0  0  0  0  0
   10.5680   -0.0350   -0.7480 C   0  0  0  0  0  0  0  0  0  0  0  0
   10.6800    1.3330   -0.4900 C   0  0  0  0  0  3  0  0  0  0  0  0
    9.7080    4.1510    0.0690 C   0  0  0  0  0  1  0  0  0  0  0  0
   10.1430    3.1980    1.0300 O   0  0  0  0  0  0  0  0  0  0  0  0
   11.0890   -0.6980   -1.8250 O   0  0  0  0  0  0  0  0  0  0  0  0
   10.9910   -0.0570   -3.0910 C   0  0  0  0  0  1  0  0  0  0  0  0
  1  2  2  0  0  0  0
  1 19  1  0  0  0  0
  3  9  1  0  0  0  0
  3  2  1  0  0  0  0
  4  3  2  0  0  0  0
  5  4  1  0  0  0  0
  5  7  1  0  0  0  0
  6  5  2  0  0  0  0
  7  1  1  0  0  0  0
  8  7  1  0  0  0  0
  9 10  2  0  0  0  0
  9 15  1  0  0  0  0
 10 11  1  0  0  0  0
 11 12  2  0  0  0  0
 12 13  1  0  0  0  0
 14 12  1  0  0  0  0
 15 14  2  0  0  0  0
 16 15  1  0  0  0  0
 17  4  1  0  0  0  0
 18 17  1  0  0  0  0
 20 19  1  0  0  0  0
 21 28  1  0  0  0  0
 21 22  1  0  0  0  0
 23 22  2  0  0  0  0
 23 20  1  0  0  0  0
 24 23  1  0  0  0  0
 25 26  1  0  0  0  0
 25 24  2  0  0  0  0
 26 21  2  0  0  0  0
 27 28  1  0  0  0  0
 29 25  1  0  0  0  0
 30 29  1  0  0  0  0
M  END
>  <minimizedAffinity>
-7.8934741

$$$$
