REMARK  Name = 
REMARK  8 active torsions:
REMARK  status: ('A' for Active; 'I' for Inactive)
REMARK    1  A    between atoms: C_2  and  C_11
REMARK    2  A    between atoms: N_3  and  C_4
REMARK    3  A    between atoms: C_7  and  O_8
REMARK    4  A    between atoms: C_11  and  N_27
REMARK    5  A    between atoms: C_12  and  C_13
REMARK    6  A    between atoms: C_16  and  O_17
REMARK    7  A    between atoms: O_17  and  C_18
REMARK    8  A    between atoms: C_28  and  C_30
REMARK                            x       y       z     vdW  Elec       q    Type
REMARK                         _______ _______ _______ _____ _____    ______ ____
ROOT
ATOM      1  C   UNL     1       2.648   1.499   0.651  0.00  0.00    +0.097 C 
ATOM      2  C   UNL     1       2.361   2.698   1.200  0.00  0.00    +0.036 C 
ENDROOT
BRANCH   2   3
ATOM      3  C   UNL     1       3.250   3.564   1.986  0.00  0.00    -0.023 A 
ATOM      4  C   UNL     1       4.442   4.092   1.480  0.00  0.00    +0.011 A 
ATOM      5  C   UNL     1       5.232   4.939   2.269  0.00  0.00    +0.047 A 
ATOM      6  C   UNL     1       4.824   5.275   3.563  0.00  0.00    +0.129 A 
ATOM      7  C   UNL     1       3.639   4.742   4.071  0.00  0.00    +0.047 A 
ATOM      8  C   UNL     1       2.853   3.898   3.286  0.00  0.00    +0.011 A 
BRANCH   6   9
ATOM      9  O   UNL     1       5.506   6.095   4.436  0.00  0.00    -0.455 OA
BRANCH   9  10
ATOM     10  C   UNL     1       6.465   6.935   3.928  0.00  0.00    +0.142 A 
ATOM     11  C   UNL     1       7.800   6.588   4.159  0.00  0.00    +0.047 A 
ATOM     12  C   UNL     1       8.824   7.429   3.726  0.00  0.00    +0.004 A 
ATOM     13  C   UNL     1       8.516   8.624   3.076  0.00  0.00    +0.001 A 
ATOM     14  C   UNL     1       7.183   8.985   2.867  0.00  0.00    +0.019 A 
ATOM     15  C   UNL     1       6.154   8.147   3.304  0.00  0.00    +0.060 A 
ATOM     16 BR   UNL     1       4.365   8.725   3.054  0.00  0.00    -0.046 Br
ENDBRANCH   9  10
ENDBRANCH   6   9
ENDBRANCH   2   3
BRANCH   1  18
ATOM     17  O   UNL     1       0.289   1.224   0.124  0.00  0.00    -0.268 OA
ATOM     18  C   UNL     1       1.427   0.768   0.109  0.00  0.00    +0.262 C 
ATOM     19  N   UNL     1       1.667  -0.531  -0.220  0.00  0.00    -0.280 N 
ATOM     20  H   UNL     1       0.931  -1.196  -0.029  0.00  0.00    +0.155 HD
BRANCH  19  21
ATOM     21  C   UNL     1       2.986  -0.877  -0.379  0.00  0.00    +0.034 A 
ATOM     22  C   UNL     1       3.752  -2.050   0.754  0.00  0.00    +0.027 A 
ATOM     23  C   UNL     1       5.550  -2.168   0.822  0.00  0.00    +0.047 A 
ATOM     24  C   UNL     1       6.579  -1.135  -0.294  0.00  0.00    +0.117 A 
ATOM     25  C   UNL     1       5.826   0.029  -1.432  0.00  0.00    +0.047 A 
ATOM     26  C   UNL     1       4.033   0.202  -1.474  0.00  0.00    +0.027 A 
BRANCH  24  27
ATOM     27  O   UNL     1       7.937  -1.166  -0.188  0.00  0.00    -0.507 OA
ATOM     28  H   UNL     1       8.110  -1.413   0.737  0.00  0.00    +0.292 HD
ENDBRANCH  24  27
ENDBRANCH  19  21
ENDBRANCH   1  18
BRANCH   1  29
ATOM     29  N   UNL     1       3.915   0.916   0.781  0.00  0.00    -0.277 N 
ATOM     30  C   UNL     1       4.789  -0.299   0.345  0.00  0.00    +0.248 C 
ATOM     31  O   UNL     1       5.627   0.001   1.279  0.00  0.00    -0.270 OA
ATOM     32  H   UNL     1       4.515   1.411   1.437  0.00  0.00    +0.155 HD
BRANCH  30  33
ATOM     33  C   UNL     1       4.693  -1.814  -1.181  0.00  0.00    +0.037 A 
ATOM     34  C   UNL     1       5.577  -3.041  -1.436  0.00  0.00    +0.013 A 
ATOM     35  C   UNL     1       5.493  -4.080  -2.415  0.00  0.00    +0.001 A 
ATOM     36  C   UNL     1       4.500  -4.088  -3.360  0.00  0.00    +0.000 A 
ATOM     37  C   UNL     1       3.607  -3.050  -3.338  0.00  0.00    +0.001 A 
ATOM     38  C   UNL     1       3.705  -2.020  -2.354  0.00  0.00    +0.013 A 
ENDBRANCH  30  33
ENDBRANCH   1  29
TORSDOF 8
