
 OpenBabel09132204463D

 38 40  0  0  0  0  0  0  0  0999 V2000
    6.9150   -3.1790    6.2410 C   0  0  0  0  0  0  0  0  0  0  0  0
    8.1400   -3.0140    5.6990 C   0  0  0  0  0  2  0  0  0  0  0  0
    8.4710   -2.6840    4.3060 C   0  0  0  0  0  0  0  0  0  0  0  0
    8.0870   -3.4810    3.2230 C   0  0  0  0  0  3  0  0  0  0  0  0
    8.4050   -3.0950    1.9140 C   0  0  0  0  0  3  0  0  0  0  0  0
    9.0950   -1.9020    1.6820 C   0  0  0  0  0  0  0  0  0  0  0  0
    9.4850   -1.1110    2.7630 C   0  0  0  0  0  3  0  0  0  0  0  0
    9.1690   -1.4950    4.0660 C   0  0  0  0  0  3  0  0  0  0  0  0
    9.4660   -1.4120    0.4480 O   0  0  0  0  0  0  0  0  0  0  0  0
   10.4910   -2.0320   -0.2200 C   0  0  0  0  0  0  0  0  0  0  0  0
   11.0400   -3.1720    0.3770 C   0  0  0  0  0  3  0  0  0  0  0  0
   12.1260   -3.8150   -0.2150 C   0  0  0  0  0  3  0  0  0  0  0  0
   12.6750   -3.3130   -1.3950 C   0  0  0  0  0  3  0  0  0  0  0  0
   12.1440   -2.1600   -1.9800 C   0  0  0  0  0  3  0  0  0  0  0  0
   11.0590   -1.5100   -1.3860 C   0  0  0  0  0  0  0  0  0  0  0  0
   10.4290    0.0890   -2.1890 Br  0  0  0  0  0  0  0  0  0  0  0  0
    6.5030   -4.8530    7.9580 O   0  0  0  0  0  0  0  0  0  0  0  0
    6.9430   -3.7500    7.6520 C   0  0  0  0  0  0  0  0  0  0  0  0
    7.3230   -2.8500    8.6000 N   0  0  0  0  0  0  0  0  0  0  0  0
    6.8590   -2.9030    9.4960 H   0  0  0  0  0  0  0  0  0  0  0  0
    7.9670   -1.7280    8.1400 C   0  0  0  0  0  0  0  0  0  0  0  0
    9.7650   -1.7070    8.0200 C   0  0  0  0  0  3  0  0  0  0  0  0
   10.6200   -0.1290    7.8440 C   0  0  0  0  0  3  0  0  0  0  0  0
    9.6560    1.4290    7.7370 C   0  0  0  0  0  0  0  0  0  0  0  0
    7.8660    1.4180    7.8460 C   0  0  0  0  0  3  0  0  0  0  0  0
    6.9960   -0.1420    8.0790 C   0  0  0  0  0  3  0  0  0  0  0  0
   10.3040    2.6270    7.6830 O   0  0  0  0  0  0  0  0  0  0  0  0
   11.1540    2.4710    8.1310 H   0  0  0  0  0  0  0  0  0  0  0  0
    5.7490   -3.0400    5.4770 N   0  0  0  0  0  4  0  0  0  0  0  0
    4.9380   -3.6590    4.2990 C   0  0  0  0  0  2  0  0  0  0  0  0
    4.2380   -2.5770    4.2440 O   0  0  0  0  0  1  0  0  0  0  0  0
    5.2190   -2.2030    5.7100 H   0  0  0  0  0  0  0  0  0  0  0  0
    4.9300   -5.5290    3.2320 C   0  0  0  0  0  3  0  0  0  0  0  0
    4.1650   -6.8320    3.4930 C   0  0  0  0  0  3  0  0  0  0  0  0
    4.1150   -8.0610    2.7630 C   0  0  0  0  0  3  0  0  0  0  0  0
    4.8450   -8.2380    1.6170 C   0  0  0  0  0  3  0  0  0  0  0  0
    5.6390   -7.1980    1.2140 C   0  0  0  0  0  3  0  0  0  0  0  0
    5.6790   -5.9770    1.9540 C   0  0  0  0  0  3  0  0  0  0  0  0
  1 18  1  0  0  0  0
  2  1  1  0  0  0  0
  3  2  1  0  0  0  0
  4  3  2  0  0  0  0
  5  4  1  0  0  0  0
  6  5  2  0  0  0  0
  6  7  1  0  0  0  0
  7  8  2  0  0  0  0
  8  3  1  0  0  0  0
  9  6  1  0  0  0  0
 10 11  1  0  0  0  0
 10  9  1  0  0  0  0
 12 11  2  0  0  0  0
 13 12  1  0  0  0  0
 14 13  2  0  0  0  0
 14 15  1  0  0  0  0
 15 10  2  0  0  0  0
 16 15  1  0  0  0  0
 18 17  2  0  0  0  0
 18 19  1  0  0  0  0
 19 20  1  0  0  0  0
 21 19  1  0  0  0  0
 22 21  2  0  0  0  0
 23 22  1  0  0  0  0
 24 23  2  0  0  0  0
 24 25  1  0  0  0  0
 25 26  2  0  0  0  0
 26 21  1  0  0  0  0
 27 24  1  0  0  0  0
 27 28  1  0  0  0  0
 29 32  1  0  0  0  0
 29  1  2  0  0  0  0
 30 29  1  0  0  0  0
 31 30  1  0  0  0  0
 33 34  1  0  0  0  0
 35 34  2  0  0  0  0
 36 35  1  0  0  0  0
 37 36  2  0  0  0  0
 37 38  1  0  0  0  0
 38 33  2  0  0  0  0
M  END
>  <minimizedAffinity>
-7.5794301

$$$$
