
 OpenBabel09132204463D

 38 40  0  0  0  0  0  0  0  0999 V2000
   10.2120    5.9200    0.7560 C   0  0  0  0  0  0  0  0  0  0  0  0
    9.8710    6.8580    1.6640 C   0  0  0  0  0  2  0  0  0  0  0  0
   10.6100    7.2530    2.8710 C   0  0  0  0  0  0  0  0  0  0  0  0
   10.8330    6.3870    3.9460 C   0  0  0  0  0  3  0  0  0  0  0  0
   11.5740    6.8130    5.0560 C   0  0  0  0  0  3  0  0  0  0  0  0
   12.1100    8.1040    5.0890 C   0  0  0  0  0  0  0  0  0  0  0  0
   11.8810    8.9710    4.0200 C   0  0  0  0  0  3  0  0  0  0  0  0
   11.1430    8.5470    2.9150 C   0  0  0  0  0  3  0  0  0  0  0  0
   12.8550    8.6420    6.1160 O   0  0  0  0  0  0  0  0  0  0  0  0
   12.3650    9.7450    6.7690 C   0  0  0  0  0  0  0  0  0  0  0  0
   12.8200   10.9940    6.3350 C   0  0  0  0  0  3  0  0  0  0  0  0
   12.4120   12.1530    6.9940 C   0  0  0  0  0  3  0  0  0  0  0  0
   11.5620   12.0640    8.0970 C   0  0  0  0  0  3  0  0  0  0  0  0
   11.1270   10.8160    8.5480 C   0  0  0  0  0  3  0  0  0  0  0  0
   11.5380    9.6520    7.8930 C   0  0  0  0  0  0  0  0  0  0  0  0
   10.9710    7.9840    8.5960 Br  0  0  0  0  0  0  0  0  0  0  0  0
    8.5640    4.5050   -0.3390 O   0  0  0  0  0  0  0  0  0  0  0  0
    9.1030    5.6020   -0.2380 C   0  0  0  0  0  0  0  0  0  0  0  0
    8.8880    6.5860   -1.1530 N   0  0  0  0  0  0  0  0  0  0  0  0
    8.6580    6.2960   -2.0930 H   0  0  0  0  0  0  0  0  0  0  0  0
    9.3970    7.8210   -0.8390 C   0  0  0  0  0  0  0  0  0  0  0  0
    8.3810    9.0140    0.0500 C   0  0  0  0  0  3  0  0  0  0  0  0
    8.8730   10.7490    0.0760 C   0  0  0  0  0  3  0  0  0  0  0  0
   10.4230   11.2740   -0.7560 C   0  0  0  0  0  0  0  0  0  0  0  0
   11.4470   10.0930   -1.6350 C   0  0  0  0  0  3  0  0  0  0  0  0
   10.9420    8.3650   -1.7200 C   0  0  0  0  0  3  0  0  0  0  0  0
   10.7540   12.5950   -0.8040 O   0  0  0  0  0  0  0  0  0  0  0  0
    9.9050   13.0680   -0.7550 H   0  0  0  0  0  0  0  0  0  0  0  0
   11.3920    5.1750    0.8770 N   0  0  0  0  0  4  0  0  0  0  0  0
   12.0540    3.8070    0.5310 C   0  0  0  0  0  2  0  0  0  0  0  0
   12.9930    4.0770    1.3740 O   0  0  0  0  0  1  0  0  0  0  0  0
   12.1020    5.6430    1.4360 H   0  0  0  0  0  0  0  0  0  0  0  0
   11.6360    2.1710   -0.8040 C   0  0  0  0  0  3  0  0  0  0  0  0
   12.4260    1.6210   -1.9970 C   0  0  0  0  0  3  0  0  0  0  0  0
   12.1830    0.5060   -2.8590 C   0  0  0  0  0  3  0  0  0  0  0  0
   11.0730   -0.2830   -2.7050 C   0  0  0  0  0  3  0  0  0  0  0  0
   10.1990    0.0540   -1.7060 C   0  0  0  0  0  3  0  0  0  0  0  0
   10.4560    1.1710   -0.8540 C   0  0  0  0  0  3  0  0  0  0  0  0
  1 29  2  0  0  0  0
  1  2  1  0  0  0  0
  2  3  1  0  0  0  0
  3  8  2  0  0  0  0
  3  4  1  0  0  0  0
  4  5  2  0  0  0  0
  5  6  1  0  0  0  0
  6  9  1  0  0  0  0
  7  6  2  0  0  0  0
  8  7  1  0  0  0  0
  9 10  1  0  0  0  0
 10 15  1  0  0  0  0
 11 10  2  0  0  0  0
 11 12  1  0  0  0  0
 12 13  2  0  0  0  0
 13 14  1  0  0  0  0
 15 14  2  0  0  0  0
 15 16  1  0  0  0  0
 17 18  2  0  0  0  0
 18  1  1  0  0  0  0
 19 21  1  0  0  0  0
 19 18  1  0  0  0  0
 20 19  1  0  0  0  0
 21 22  1  0  0  0  0
 22 23  2  0  0  0  0
 24 23  1  0  0  0  0
 25 24  2  0  0  0  0
 26 25  1  0  0  0  0
 26 21  2  0  0  0  0
 27 24  1  0  0  0  0
 27 28  1  0  0  0  0
 29 32  1  0  0  0  0
 30 29  1  0  0  0  0
 30 31  1  0  0  0  0
 34 33  2  0  0  0  0
 35 36  2  0  0  0  0
 35 34  1  0  0  0  0
 36 37  1  0  0  0  0
 37 38  2  0  0  0  0
 38 33  1  0  0  0  0
M  END
>  <minimizedAffinity>
-6.83454418

$$$$
