
 OpenBabel09132204463D

 38 40  0  0  0  0  0  0  0  0999 V2000
   10.8030    3.9270    3.8590 C   0  0  0  0  0  0  0  0  0  0  0  0
    9.9040    2.9200    3.8790 C   0  0  0  0  0  2  0  0  0  0  0  0
    9.7370    1.8430    2.8940 C   0  0  0  0  0  0  0  0  0  0  0  0
    9.7510    2.0640    1.5130 C   0  0  0  0  0  3  0  0  0  0  0  0
    9.6200    0.9900    0.6230 C   0  0  0  0  0  3  0  0  0  0  0  0
    9.4900   -0.3140    1.1110 C   0  0  0  0  0  0  0  0  0  0  0  0
    9.4680   -0.5340    2.4880 C   0  0  0  0  0  3  0  0  0  0  0  0
    9.5980    0.5360    3.3740 C   0  0  0  0  0  3  0  0  0  0  0  0
    9.3560   -1.4510    0.3450 O   0  0  0  0  0  0  0  0  0  0  0  0
   10.4930   -2.0640   -0.1200 C   0  0  0  0  0  0  0  0  0  0  0  0
   11.0730   -3.0340    0.7030 C   0  0  0  0  0  3  0  0  0  0  0  0
   12.2640   -3.6500    0.3220 C   0  0  0  0  0  3  0  0  0  0  0  0
   12.8840   -3.2880   -0.8730 C   0  0  0  0  0  3  0  0  0  0  0  0
   12.3200   -2.3010   -1.6850 C   0  0  0  0  0  3  0  0  0  0  0  0
   11.1290   -1.6770   -1.3030 C   0  0  0  0  0  0  0  0  0  0  0  0
   10.4500   -0.2960   -2.4120 Br  0  0  0  0  0  0  0  0  0  0  0  0
   10.2900    6.1710    4.6460 O   0  0  0  0  0  0  0  0  0  0  0  0
   10.5400    5.0000    4.9070 C   0  0  0  0  0  0  0  0  0  0  0  0
   10.8020    4.5980    6.1810 N   0  0  0  0  0  0  0  0  0  0  0  0
   11.2070    5.2820    6.8040 H   0  0  0  0  0  0  0  0  0  0  0  0
   10.8880    3.2420    6.3780 C   0  0  0  0  0  0  0  0  0  0  0  0
    9.4360    2.3150    6.9070 C   0  0  0  0  0  3  0  0  0  0  0  0
    9.6430    0.6550    7.5780 C   0  0  0  0  0  3  0  0  0  0  0  0
   11.3170   -0.0950    7.6700 C   0  0  0  0  0  0  0  0  0  0  0  0
   12.7680    0.8150    7.1370 C   0  0  0  0  0  3  0  0  0  0  0  0
   12.5870    2.4970    6.5170 C   0  0  0  0  0  3  0  0  0  0  0  0
   11.4830   -1.3170    8.2490 O   0  0  0  0  0  0  0  0  0  0  0  0
   10.7510   -1.3930    8.8850 H   0  0  0  0  0  0  0  0  0  0  0  0
   11.7390    4.0550    2.8260 N   0  0  0  0  0  4  0  0  0  0  0  0
   11.9980    4.7250    1.4420 C   0  0  0  0  0  2  0  0  0  0  0  0
   12.9930    3.9220    1.2680 O   0  0  0  0  0  1  0  0  0  0  0  0
   12.5610    3.4710    2.9590 H   0  0  0  0  0  0  0  0  0  0  0  0
   11.1240    6.3300    0.3050 C   0  0  0  0  0  3  0  0  0  0  0  0
    9.7790    7.0520    0.4560 C   0  0  0  0  0  3  0  0  0  0  0  0
    9.2100    8.1510   -0.2620 C   0  0  0  0  0  3  0  0  0  0  0  0
    9.8780    8.7430   -1.3020 C   0  0  0  0  0  3  0  0  0  0  0  0
   11.1020    8.2260   -1.6350 C   0  0  0  0  0  3  0  0  0  0  0  0
   11.6560    7.1290   -0.9090 C   0  0  0  0  0  3  0  0  0  0  0  0
  1  2  1  0  0  0  0
  1 18  1  0  0  0  0
  3  8  1  0  0  0  0
  3  2  1  0  0  0  0
  4  3  2  0  0  0  0
  5  6  2  0  0  0  0
  5  4  1  0  0  0  0
  6  7  1  0  0  0  0
  7  8  2  0  0  0  0
  9  6  1  0  0  0  0
 10  9  1  0  0  0  0
 10 11  1  0  0  0  0
 12 11  2  0  0  0  0
 13 12  1  0  0  0  0
 14 15  1  0  0  0  0
 14 13  2  0  0  0  0
 15 10  2  0  0  0  0
 16 15  1  0  0  0  0
 17 18  2  0  0  0  0
 18 19  1  0  0  0  0
 19 21  1  0  0  0  0
 19 20  1  0  0  0  0
 21 26  2  0  0  0  0
 21 22  1  0  0  0  0
 22 23  2  0  0  0  0
 23 24  1  0  0  0  0
 24 27  1  0  0  0  0
 25 24  2  0  0  0  0
 26 25  1  0  0  0  0
 27 28  1  0  0  0  0
 29 32  1  0  0  0  0
 29  1  2  0  0  0  0
 30 29  1  0  0  0  0
 31 30  1  0  0  0  0
 33 34  1  0  0  0  0
 35 34  2  0  0  0  0
 36 35  1  0  0  0  0
 37 36  2  0  0  0  0
 37 38  1  0  0  0  0
 38 33  2  0  0  0  0
M  END
>  <minimizedAffinity>
-6.63610935

$$$$
