
 OpenBabel09132204463D

 38 40  0  0  0  0  0  0  0  0999 V2000
    9.3330   10.1650    0.8370 C   0  0  0  0  0  0  0  0  0  0  0  0
    9.1450    9.1460    1.7010 C   0  0  0  0  0  2  0  0  0  0  0  0
    9.8890    7.8820    1.7780 C   0  0  0  0  0  0  0  0  0  0  0  0
   10.7920    7.5900    2.8050 C   0  0  0  0  0  3  0  0  0  0  0  0
   11.4480    6.3520    2.8410 C   0  0  0  0  0  3  0  0  0  0  0  0
   11.1910    5.3940    1.8570 C   0  0  0  0  0  0  0  0  0  0  0  0
   10.2960    5.6870    0.8270 C   0  0  0  0  0  3  0  0  0  0  0  0
    9.6440    6.9200    0.7910 C   0  0  0  0  0  3  0  0  0  0  0  0
   11.7660    4.1430    1.7800 O   0  0  0  0  0  0  0  0  0  0  0  0
   10.9410    3.0470    1.7430 C   0  0  0  0  0  0  0  0  0  0  0  0
   10.2860    2.7050    2.9300 C   0  0  0  0  0  3  0  0  0  0  0  0
    9.4830    1.5670    2.9810 C   0  0  0  0  0  3  0  0  0  0  0  0
    9.3460    0.7600    1.8510 C   0  0  0  0  0  3  0  0  0  0  0  0
   10.0200    1.0850    0.6720 C   0  0  0  0  0  3  0  0  0  0  0  0
   10.8300    2.2230    0.6190 C   0  0  0  0  0  0  0  0  0  0  0  0
   11.7750    2.5720   -0.9880 Br  0  0  0  0  0  0  0  0  0  0  0  0
    7.2370   11.2030    0.1670 O   0  0  0  0  0  0  0  0  0  0  0  0
    8.2320   11.2160    0.8840 C   0  0  0  0  0  0  0  0  0  0  0  0
    8.5370   12.2950    1.6560 N   0  0  0  0  0  0  0  0  0  0  0  0
    8.2200   13.1970    1.3290 H   0  0  0  0  0  0  0  0  0  0  0  0
    9.5670   12.1250    2.5470 C   0  0  0  0  0  0  0  0  0  0  0  0
    9.2340   11.4750    4.1940 C   0  0  0  0  0  3  0  0  0  0  0  0
   10.4780   11.6610    5.4860 C   0  0  0  0  0  3  0  0  0  0  0  0
   12.0850   12.4600    5.1020 C   0  0  0  0  0  0  0  0  0  0  0  0
   12.4300   13.1020    3.4630 C   0  0  0  0  0  3  0  0  0  0  0  0
   11.1780   12.9770    2.1750 C   0  0  0  0  0  3  0  0  0  0  0  0
   12.9930   12.6710    6.0960 O   0  0  0  0  0  0  0  0  0  0  0  0
   12.4630   12.7410    6.9080 H   0  0  0  0  0  0  0  0  0  0  0  0
   10.3310   10.1210   -0.1450 N   0  0  0  0  0  4  0  0  0  0  0  0
   10.5880    9.8820   -1.6640 C   0  0  0  0  0  2  0  0  0  0  0  0
   11.8470    9.7640   -1.4070 O   0  0  0  0  0  1  0  0  0  0  0  0
   11.2680   10.2340    0.2350 H   0  0  0  0  0  0  0  0  0  0  0  0
    9.3900    9.8180   -3.4520 C   0  0  0  0  0  3  0  0  0  0  0  0
    8.9260    8.6340   -4.3080 C   0  0  0  0  0  3  0  0  0  0  0  0
    8.0900    8.5760   -5.4670 C   0  0  0  0  0  3  0  0  0  0  0  0
    7.5580    9.7130   -6.0180 C   0  0  0  0  0  3  0  0  0  0  0  0
    7.8770   10.9040   -5.4240 C   0  0  0  0  0  3  0  0  0  0  0  0
    8.7140   10.9460   -4.2670 C   0  0  0  0  0  3  0  0  0  0  0  0
  1 18  1  0  0  0  0
  1  2  1  0  0  0  0
  2  3  1  0  0  0  0
  3  4  1  0  0  0  0
  4  5  2  0  0  0  0
  6  5  1  0  0  0  0
  7  6  2  0  0  0  0
  8  7  1  0  0  0  0
  8  3  2  0  0  0  0
  9  6  1  0  0  0  0
 10  9  1  0  0  0  0
 10 11  1  0  0  0  0
 11 12  2  0  0  0  0
 13 12  1  0  0  0  0
 14 13  2  0  0  0  0
 15 14  1  0  0  0  0
 15 10  2  0  0  0  0
 16 15  1  0  0  0  0
 17 18  2  0  0  0  0
 18 19  1  0  0  0  0
 19 21  1  0  0  0  0
 20 19  1  0  0  0  0
 21 22  1  0  0  0  0
 22 23  2  0  0  0  0
 24 23  1  0  0  0  0
 24 27  1  0  0  0  0
 25 24  2  0  0  0  0
 26 21  2  0  0  0  0
 26 25  1  0  0  0  0
 27 28  1  0  0  0  0
 29 32  1  0  0  0  0
 29  1  2  0  0  0  0
 30 31  1  0  0  0  0
 30 29  1  0  0  0  0
 34 33  2  0  0  0  0
 35 34  1  0  0  0  0
 36 35  2  0  0  0  0
 36 37  1  0  0  0  0
 37 38  2  0  0  0  0
 38 33  1  0  0  0  0
M  END
>  <minimizedAffinity>
-7.34241915

$$$$
