
 OpenBabel09132204463D

 38 40  0  0  0  0  0  0  0  0999 V2000
   11.4530   10.0640    1.9860 C   0  0  0  0  0  0  0  0  0  0  0  0
   12.3130    9.5090    1.1070 C   0  0  0  0  0  2  0  0  0  0  0  0
   12.2890    8.1450    0.5620 C   0  0  0  0  0  0  0  0  0  0  0  0
   11.6670    7.8180   -0.6480 C   0  0  0  0  0  3  0  0  0  0  0  0
   11.7060    6.5030   -1.1310 C   0  0  0  0  0  3  0  0  0  0  0  0
   12.3810    5.5120   -0.4130 C   0  0  0  0  0  0  0  0  0  0  0  0
   12.9940    5.8350    0.7970 C   0  0  0  0  0  3  0  0  0  0  0  0
   12.9550    7.1440    1.2790 C   0  0  0  0  0  3  0  0  0  0  0  0
   12.4930    4.1880   -0.7790 O   0  0  0  0  0  0  0  0  0  0  0  0
   11.5690    3.2960   -0.2950 C   0  0  0  0  0  0  0  0  0  0  0  0
   10.9130    3.6420    0.8910 C   0  0  0  0  0  3  0  0  0  0  0  0
   10.0080    2.7550    1.4720 C   0  0  0  0  0  3  0  0  0  0  0  0
    9.7690    1.5160    0.8780 C   0  0  0  0  0  3  0  0  0  0  0  0
   10.4420    1.1580   -0.2920 C   0  0  0  0  0  3  0  0  0  0  0  0
   11.3530    2.0420   -0.8750 C   0  0  0  0  0  0  0  0  0  0  0  0
   12.2860    1.4710   -2.4230 Br  0  0  0  0  0  0  0  0  0  0  0  0
   12.7690   11.5600    3.3810 O   0  0  0  0  0  0  0  0  0  0  0  0
   11.9110   11.4150    2.5180 C   0  0  0  0  0  0  0  0  0  0  0  0
   11.1450   12.4580    2.0960 N   0  0  0  0  0  0  0  0  0  0  0  0
   10.9780   13.2020    2.7580 H   0  0  0  0  0  0  0  0  0  0  0  0
   10.3490   12.2170    1.0030 C   0  0  0  0  0  0  0  0  0  0  0  0
   11.0290   12.3770   -0.6580 C   0  0  0  0  0  3  0  0  0  0  0  0
    9.9060   12.4930   -2.0650 C   0  0  0  0  0  3  0  0  0  0  0  0
    8.0920   12.3950   -1.8000 C   0  0  0  0  0  0  0  0  0  0  0  0
    7.4060   12.2250   -0.1510 C   0  0  0  0  0  3  0  0  0  0  0  0
    8.5100   12.1660    1.2720 C   0  0  0  0  0  3  0  0  0  0  0  0
    7.2420   12.5610   -2.8520 O   0  0  0  0  0  0  0  0  0  0  0  0
    7.7320   13.1160   -3.4830 H   0  0  0  0  0  0  0  0  0  0  0  0
   10.3680    9.3450    2.5050 N   0  0  0  0  0  4  0  0  0  0  0  0
    9.9620    8.0060    3.1920 C   0  0  0  0  0  2  0  0  0  0  0  0
    8.7280    8.2730    2.9260 O   0  0  0  0  0  1  0  0  0  0  0  0
    9.4760    9.8130    2.3620 H   0  0  0  0  0  0  0  0  0  0  0  0
   10.9870    6.4030    4.1990 C   0  0  0  0  0  3  0  0  0  0  0  0
   10.6900    4.8990    4.2560 C   0  0  0  0  0  3  0  0  0  0  0  0
   11.3900    3.8200    4.8800 C   0  0  0  0  0  3  0  0  0  0  0  0
   12.5390    4.0370    5.5960 C   0  0  0  0  0  3  0  0  0  0  0  0
   12.9730    5.3320    5.7050 C   0  0  0  0  0  3  0  0  0  0  0  0
   12.2610    6.3980    5.0770 C   0  0  0  0  0  3  0  0  0  0  0  0
  1 29  2  0  0  0  0
  1 18  1  0  0  0  0
  2  1  1  0  0  0  0
  3  2  1  0  0  0  0
  3  8  1  0  0  0  0
  4  3  2  0  0  0  0
  5  4  1  0  0  0  0
  5  6  2  0  0  0  0
  6  7  1  0  0  0  0
  7  8  2  0  0  0  0
  9  6  1  0  0  0  0
  9 10  1  0  0  0  0
 10 11  1  0  0  0  0
 11 12  2  0  0  0  0
 13 12  1  0  0  0  0
 14 13  2  0  0  0  0
 15 10  2  0  0  0  0
 15 14  1  0  0  0  0
 16 15  1  0  0  0  0
 18 17  2  0  0  0  0
 19 18  1  0  0  0  0
 19 20  1  0  0  0  0
 21 26  1  0  0  0  0
 21 19  1  0  0  0  0
 22 21  2  0  0  0  0
 23 24  2  0  0  0  0
 23 22  1  0  0  0  0
 24 25  1  0  0  0  0
 25 26  2  0  0  0  0
 27 24  1  0  0  0  0
 28 27  1  0  0  0  0
 29 30  1  0  0  0  0
 31 30  1  0  0  0  0
 32 29  1  0  0  0  0
 33 34  2  0  0  0  0
 33 38  1  0  0  0  0
 34 35  1  0  0  0  0
 35 36  2  0  0  0  0
 36 37  1  0  0  0  0
 38 37  2  0  0  0  0
M  END
>  <minimizedAffinity>
-6.7759881

$$$$
