
 OpenBabel09132204463D

 38 40  0  0  0  0  0  0  0  0999 V2000
    9.1250   10.8270    0.5330 C   0  0  0  0  0  0  0  0  0  0  0  0
    8.8850    9.7660    1.3320 C   0  0  0  0  0  2  0  0  0  0  0  0
    9.5740    8.4690    1.3360 C   0  0  0  0  0  0  0  0  0  0  0  0
    9.3080    7.4620    0.4020 C   0  0  0  0  0  3  0  0  0  0  0  0
   10.0220    6.2570    0.4380 C   0  0  0  0  0  3  0  0  0  0  0  0
   11.0180    6.0590    1.3990 C   0  0  0  0  0  0  0  0  0  0  0  0
   11.2770    7.0600    2.3360 C   0  0  0  0  0  3  0  0  0  0  0  0
   10.5660    8.2590    2.3010 C   0  0  0  0  0  3  0  0  0  0  0  0
   11.7890    4.9260    1.5400 O   0  0  0  0  0  0  0  0  0  0  0  0
   11.1720    3.7030    1.4590 C   0  0  0  0  0  0  0  0  0  0  0  0
   11.0870    3.1160    0.1930 C   0  0  0  0  0  3  0  0  0  0  0  0
   10.4180    1.9040    0.0290 C   0  0  0  0  0  3  0  0  0  0  0  0
    9.8200    1.2850    1.1260 C   0  0  0  0  0  3  0  0  0  0  0  0
    9.8820    1.8810    2.3870 C   0  0  0  0  0  3  0  0  0  0  0  0
   10.5470    3.0980    2.5550 C   0  0  0  0  0  0  0  0  0  0  0  0
   10.5370    3.8930    4.2770 Br  0  0  0  0  0  0  0  0  0  0  0  0
    7.0780   11.9900   -0.0810 O   0  0  0  0  0  0  0  0  0  0  0  0
    8.0700   11.9200    0.6370 C   0  0  0  0  0  0  0  0  0  0  0  0
    8.4160   12.9390    1.4700 N   0  0  0  0  0  0  0  0  0  0  0  0
    8.1400   13.8710    1.1940 H   0  0  0  0  0  0  0  0  0  0  0  0
    9.4340   12.6750    2.3530 C   0  0  0  0  0  0  0  0  0  0  0  0
   11.1480   12.8130    1.8180 C   0  0  0  0  0  3  0  0  0  0  0  0
   12.4490   12.0580    2.8130 C   0  0  0  0  0  3  0  0  0  0  0  0
   12.0230   11.2050    4.3820 C   0  0  0  0  0  0  0  0  0  0  0  0
   10.3200   11.0700    4.9280 C   0  0  0  0  0  3  0  0  0  0  0  0
    9.0010   11.7680    3.9180 C   0  0  0  0  0  3  0  0  0  0  0  0
   12.9940   10.5670    5.0940 O   0  0  0  0  0  0  0  0  0  0  0  0
   13.6650   10.3200    4.4340 H   0  0  0  0  0  0  0  0  0  0  0  0
   10.1290   10.8000   -0.4430 N   0  0  0  0  0  4  0  0  0  0  0  0
   10.4320   10.4160   -1.9230 C   0  0  0  0  0  2  0  0  0  0  0  0
   11.6920   10.5020   -1.6620 O   0  0  0  0  0  1  0  0  0  0  0  0
   11.0390   11.0850   -0.0860 H   0  0  0  0  0  0  0  0  0  0  0  0
    9.2720    9.9730   -3.6810 C   0  0  0  0  0  3  0  0  0  0  0  0
    8.9110    8.6340   -4.3360 C   0  0  0  0  0  3  0  0  0  0  0  0
    8.1010    8.3250   -5.4740 C   0  0  0  0  0  3  0  0  0  0  0  0
    7.4950    9.3140   -6.2040 C   0  0  0  0  0  3  0  0  0  0  0  0
    7.7140   10.6070   -5.8100 C   0  0  0  0  0  3  0  0  0  0  0  0
    8.5260   10.8980   -4.6720 C   0  0  0  0  0  3  0  0  0  0  0  0
  1 18  1  0  0  0  0
  1  2  1  0  0  0  0
  2  3  1  0  0  0  0
  3  8  1  0  0  0  0
  4  5  1  0  0  0  0
  4  3  2  0  0  0  0
  5  6  2  0  0  0  0
  6  9  1  0  0  0  0
  6  7  1  0  0  0  0
  8  7  2  0  0  0  0
 10  9  1  0  0  0  0
 10 15  1  0  0  0  0
 11 10  2  0  0  0  0
 12 11  1  0  0  0  0
 12 13  2  0  0  0  0
 13 14  1  0  0  0  0
 14 15  2  0  0  0  0
 15 16  1  0  0  0  0
 17 18  2  0  0  0  0
 18 19  1  0  0  0  0
 19 21  1  0  0  0  0
 20 19  1  0  0  0  0
 21 26  1  0  0  0  0
 22 21  2  0  0  0  0
 22 23  1  0  0  0  0
 23 24  2  0  0  0  0
 24 25  1  0  0  0  0
 24 27  1  0  0  0  0
 26 25  2  0  0  0  0
 28 27  1  0  0  0  0
 29 32  1  0  0  0  0
 29  1  2  3  0  0  0
 30 31  1  0  0  0  0
 30 29  1  0  0  0  0
 34 33  1  0  0  0  0
 35 34  2  0  0  0  0
 36 37  2  0  0  0  0
 36 35  1  0  0  0  0
 37 38  1  0  0  0  0
 38 33  2  0  0  0  0
M  END
>  <minimizedAffinity>
-6.66199684

$$$$
