REMARK  Name = 
REMARK  7 active torsions:
REMARK  status: ('A' for Active; 'I' for Inactive)
REMARK    1  A    between atoms: C_1  and  O_2
REMARK    2  A    between atoms: O_2  and  C_3
REMARK    3  A    between atoms: C_14  and  C_15
REMARK    4  A    between atoms: N_33  and  C_34
REMARK    5  A    between atoms: C_34  and  C_35
REMARK    6  A    between atoms: C_34  and  C_36
REMARK    7  A    between atoms: N_41  and  C_42
REMARK                            x       y       z     vdW  Elec       q    Type
REMARK                         _______ _______ _______ _____ _____    ______ ____
ROOT
ATOM      1  C   UNL     1       0.308  -0.335   4.587  0.00  0.00    +0.121 A 
ATOM      2  C   UNL     1       1.082   0.563   3.861  0.00  0.00    +0.046 A 
ATOM      3  C   UNL     1       2.244   1.100   4.425  0.00  0.00    +0.014 A 
ATOM      4  C   UNL     1       2.666   0.747   5.718  0.00  0.00    +0.006 A 
ATOM      5  C   UNL     1       1.853  -0.132   6.472  0.00  0.00    -0.012 A 
ATOM      6  C   UNL     1       0.697  -0.676   5.885  0.00  0.00    +0.054 A 
ATOM      7  C   UNL     1       2.154  -0.555   7.854  0.00  0.00    +0.019 C 
ATOM      8  C   UNL     1       2.704   0.268   8.765  0.00  0.00    +0.035 C 
ATOM      9  C   UNL     1       2.956   1.726   8.519  0.00  0.00    +0.162 C 
ATOM     10  N   UNL     1       4.004   1.879   7.516  0.00  0.00    -0.335 N 
ATOM     11  C   UNL     1       3.916   1.350   6.239  0.00  0.00    +0.054 A 
ATOM     12  C   UNL     1       5.182   1.490   5.661  0.00  0.00    -0.011 A 
ATOM     13  C   UNL     1       5.986   2.259   6.577  0.00  0.00    +0.004 A 
ATOM     14  C   UNL     1       7.305   2.774   6.544  0.00  0.00    +0.011 A 
ATOM     15  C   UNL     1       7.818   3.483   7.639  0.00  0.00    +0.014 A 
ATOM     16  C   UNL     1       7.039   3.671   8.777  0.00  0.00    +0.040 A 
ATOM     17  C   UNL     1       5.723   3.194   8.828  0.00  0.00    +0.039 A 
ATOM     18  C   UNL     1       5.222   2.485   7.722  0.00  0.00    +0.051 A 
ATOM     19  C   UNL     1       7.587   4.446   9.912  0.00  0.00    +0.264 C 
ATOM     20  O   UNL     1       8.243   5.460   9.735  0.00  0.00    -0.269 OA
ATOM     21  N   UNL     1       7.188   4.055  11.208  0.00  0.00    -0.171 N 
ATOM     22  S   UNL     1       7.939   2.764  11.973  0.00  0.00    +0.114 S 
ATOM     23  O   UNL     1       9.360   2.967  11.829  0.00  0.00    -0.138 OA
ATOM     24  O   UNL     1       7.330   2.674  13.279  0.00  0.00    -0.138 OA
ATOM     25  N   UNL     1       7.467   1.437  11.064  0.00  0.00    -0.161 NA
ATOM     26  C   UNL     1       6.097   0.902  11.242  0.00  0.00    +0.111 C 
ATOM     27  C   UNL     1       5.947  -0.033  12.443  0.00  0.00    +0.019 C 
ATOM     28  C   UNL     1       5.642  -1.497  12.097  0.00  0.00    +0.020 C 
ATOM     29  C   UNL     1       4.212  -1.780  11.608  0.00  0.00    +0.108 C 
ATOM     30  N   UNL     1       3.918  -1.286  10.263  0.00  0.00    -0.301 N 
ATOM     31  C   UNL     1       4.524  -2.011   9.148  0.00  0.00    +0.132 C 
ATOM     32  C   UNL     1       3.052  -0.206  10.130  0.00  0.00    +0.244 C 
ATOM     33  O   UNL     1       2.626   0.434  11.090  0.00  0.00    -0.270 OA
ATOM     34  H   UNL     1       7.377   4.831  11.842  0.00  0.00    +0.178 HD
ENDROOT
BRANCH  12  35
ATOM     35  C   UNL     1       5.627   0.922   4.328  0.00  0.00    +0.022 C 
ATOM     36  C   UNL     1       5.951   2.013   3.295  0.00  0.00    +0.008 C 
ATOM     37  C   UNL     1       6.368   1.409   1.955  0.00  0.00    +0.001 C 
ATOM     38  C   UNL     1       7.527   0.429   2.114  0.00  0.00    +0.000 C 
ATOM     39  C   UNL     1       7.205  -0.662   3.131  0.00  0.00    +0.001 C 
ATOM     40  C   UNL     1       6.794  -0.072   4.479  0.00  0.00    +0.008 C 
ENDBRANCH  12  35
BRANCH  25  41
ATOM     41  C   UNL     1       8.527   0.624  10.404  0.00  0.00    +0.075 C 
ATOM     42  C   UNL     1       9.246  -0.277  11.404  0.00  0.00    +0.026 C 
ATOM     43  C   UNL     1       8.017  -0.189   9.218  0.00  0.00    +0.026 C 
ENDBRANCH  25  41
BRANCH   1  45
ATOM     44  C   UNL     1      -1.291  -0.612   2.849  0.00  0.00    +0.277 C 
ATOM     45  O   UNL     1      -0.842  -0.938   4.158  0.00  0.00    -0.495 OA
ENDBRANCH   1  45
TORSDOF 3
