
 OpenBabel09092211523D

 45 50  0  0  0  0  0  0  0  0999 V2000
   10.5590    6.5610    3.8200 C   0  0  0  0  0  0  0  0  0  0  0  0
    9.1880    6.4510    3.6170 C   0  0  0  0  0  3  0  0  0  0  0  0
    8.5510    5.2190    3.7980 C   0  0  0  0  0  3  0  0  0  0  0  0
    9.2620    4.0730    4.1940 C   0  0  0  0  0  0  0  0  0  0  0  0
   10.6630    4.1770    4.3560 C   0  0  0  0  0  0  0  0  0  0  0  0
   11.2870    5.4260    4.1870 C   0  0  0  0  0  3  0  0  0  0  0  0
   11.5380    3.0470    4.7300 C   0  0  0  0  0  3  0  0  0  0  0  0
   11.3360    1.7920    4.2900 C   0  0  0  0  0  0  0  0  0  0  0  0
   10.2870    1.4270    3.2820 C   0  0  0  0  0  2  0  0  0  0  0  0
    8.9630    1.6010    3.8690 N   0  0  0  0  0  0  0  0  0  0  0  0
    8.5110    2.8080    4.3770 C   0  0  0  0  0  0  0  0  0  0  0  0
    7.3200    2.5330    5.0570 C   0  0  0  0  0  0  0  0  0  0  0  0
    6.9950    1.1520    4.8060 C   0  0  0  0  0  0  0  0  0  0  0  0
    5.9110    0.3110    5.1570 C   0  0  0  0  0  3  0  0  0  0  0  0
    5.9020   -1.0360    4.7680 C   0  0  0  0  0  3  0  0  0  0  0  0
    6.9700   -1.5620    4.0480 C   0  0  0  0  0  0  0  0  0  0  0  0
    8.0440   -0.7480    3.6660 C   0  0  0  0  0  3  0  0  0  0  0  0
    8.0390    0.6010    4.0630 C   0  0  0  0  0  0  0  0  0  0  0  0
    6.9310   -2.9790    3.6210 C   0  0  0  0  0  0  0  0  0  0  0  0
    5.9060   -3.4900    3.2000 O   0  0  0  0  0  0  0  0  0  0  0  0
    8.1610   -3.6690    3.5730 N   0  0  0  0  0  0  0  0  0  0  0  0
    8.8320   -4.3060    4.9730 S   0  0  0  0  0  0  0  0  0  0  0  0
    7.7780   -5.0250    5.6470 O   0  0  0  0  0  0  0  0  0  0  0  0
   10.0410   -4.9760    4.5590 O   0  0  0  0  0  0  0  0  0  0  0  0
    9.2450   -2.9490    5.8660 N   0  0  0  0  0  0  0  0  0  0  0  0
   10.4580   -2.1880    5.4870 C   0  0  0  0  0  2  0  0  0  0  0  0
   11.7580   -2.7810    6.0330 C   0  0  0  0  0  2  0  0  0  0  0  0
   12.4830   -1.9190    7.0750 C   0  0  0  0  0  2  0  0  0  0  0  0
   13.1980   -0.6740    6.5260 C   0  0  0  0  0  2  0  0  0  0  0  0
   12.3060    0.4020    6.0950 N   0  0  0  0  0  0  0  0  0  0  0  0
   11.6320    1.1600    7.1470 C   0  0  0  0  0  1  0  0  0  0  0  0
   12.1980    0.6660    4.7340 C   0  0  0  0  0  0  0  0  0  0  0  0
   12.7120   -0.0440    3.8710 O   0  0  0  0  0  0  0  0  0  0  0  0
    8.0350   -4.4950    2.9900 H   0  0  0  0  0  0  0  0  0  0  0  0
    6.5300    3.5050    5.9110 C   0  0  0  0  0  3  0  0  0  0  0  0
    5.1650    3.8600    5.3010 C   0  0  0  0  0  2  0  0  0  0  0  0
    4.4070    4.8620    6.1700 C   0  0  0  0  0  2  0  0  0  0  0  0
    4.2650    4.3690    7.6070 C   0  0  0  0  0  2  0  0  0  0  0  0
    5.6190    4.0250    8.2200 C   0  0  0  0  0  2  0  0  0  0  0  0
    6.3850    3.0170    7.3650 C   0  0  0  0  0  2  0  0  0  0  0  0
    8.6170   -2.7710    7.2060 C   0  0  0  0  0  3  0  0  0  0  0  0
    9.3350   -3.5900    8.2740 C   0  0  0  0  0  1  0  0  0  0  0  0
    8.5050   -1.3110    7.6330 C   0  0  0  0  0  1  0  0  0  0  0  0
   12.2610    7.9660    4.7030 C   0  0  0  0  0  1  0  0  0  0  0  0
   11.3050    7.6990    3.6860 O   0  0  0  0  0  0  0  0  0  0  0  0
  1  6  1  0  0  0  0
  2  3  1  0  0  0  0
  2  1  2  0  0  0  0
  3  4  2  0  0  0  0
  4  5  1  0  0  0  0
  4 11  1  0  0  0  0
  5  7  1  0  0  0  0
  6  5  2  0  0  0  0
  8  7  2  0  0  0  0
  8 32  1  0  0  0  0
  9 10  1  0  0  0  0
  9  8  1  0  0  0  0
 10 18  1  0  0  0  0
 10 11  1  0  0  0  0
 11 12  2  0  0  0  0
 12 35  1  0  0  0  0
 13 12  1  0  0  0  0
 13 14  1  0  0  0  0
 15 14  2  0  0  0  0
 16 15  1  0  0  0  0
 17 16  2  0  0  0  0
 17 18  1  0  0  0  0
 18 13  2  0  0  0  0
 19 16  1  0  0  0  0
 20 19  2  0  0  0  0
 21 19  1  0  0  0  0
 21 22  1  0  0  0  0
 22 23  2  0  0  0  0
 22 25  1  0  0  0  0
 24 22  2  0  0  0  0
 25 41  1  0  0  0  0
 26 25  1  0  0  0  0
 26 27  1  0  0  0  0
 27 28  1  0  0  0  0
 29 28  1  0  0  0  0
 30 29  1  0  0  0  0
 30 31  1  0  0  0  0
 32 30  1  0  0  0  0
 33 32  2  0  0  0  0
 34 21  1  0  0  0  0
 35 40  1  0  0  0  0
 36 35  1  0  0  0  0
 36 37  1  0  0  0  0
 37 38  1  0  0  0  0
 38 39  1  0  0  0  0
 40 39  1  0  0  0  0
 41 43  1  0  0  0  0
 41 42  1  0  0  0  0
 45  1  1  0  0  0  0
 45 44  1  0  0  0  0
M  END
>  <minimizedAffinity>
-5.15676069

$$$$
