
 OpenBabel09082221433D

 45 50  0  0  0  0  0  0  0  0999 V2000
   10.1890    7.3080    3.6260 C   0  0  0  0  0  0  0  0  0  0  0  0
    8.9550    6.8990    3.1340 C   0  0  0  0  0  3  0  0  0  0  0  0
    8.5230    5.5840    3.3330 C   0  0  0  0  0  3  0  0  0  0  0  0
    9.3040    4.6510    4.0360 C   0  0  0  0  0  0  0  0  0  0  0  0
   10.5790    5.0560    4.4980 C   0  0  0  0  0  0  0  0  0  0  0  0
   10.9910    6.3860    4.3040 C   0  0  0  0  0  3  0  0  0  0  0  0
   11.5180    4.1710    5.2140 C   0  0  0  0  0  3  0  0  0  0  0  0
   11.6610    2.8670    4.9170 C   0  0  0  0  0  0  0  0  0  0  0  0
   10.9810    2.2020    3.7580 C   0  0  0  0  0  2  0  0  0  0  0  0
    9.5430    2.1520    3.9970 N   0  0  0  0  0  0  0  0  0  0  0  0
    8.7700    3.2800    4.2170 C   0  0  0  0  0  0  0  0  0  0  0  0
    7.5150    2.8280    4.6390 C   0  0  0  0  0  0  0  0  0  0  0  0
    7.5150    1.3930    4.5150 C   0  0  0  0  0  0  0  0  0  0  0  0
    6.5460    0.3810    4.7220 C   0  0  0  0  0  3  0  0  0  0  0  0
    6.8750   -0.9680    4.5320 C   0  0  0  0  0  3  0  0  0  0  0  0
    8.1660   -1.3260    4.1540 C   0  0  0  0  0  0  0  0  0  0  0  0
    9.1380   -0.3450    3.9180 C   0  0  0  0  0  3  0  0  0  0  0  0
    8.7930    1.0040    4.1120 C   0  0  0  0  0  0  0  0  0  0  0  0
    8.4880   -2.7520    3.9310 C   0  0  0  0  0  0  0  0  0  0  0  0
    7.7100   -3.5010    3.3620 O   0  0  0  0  0  0  0  0  0  0  0  0
    9.7940   -3.1750    4.2600 N   0  0  0  0  0  0  0  0  0  0  0  0
   10.1950   -3.5290    5.8500 S   0  0  0  0  0  0  0  0  0  0  0  0
    9.1510   -4.3860    6.3590 O   0  0  0  0  0  0  0  0  0  0  0  0
   11.5690   -3.9700    5.8200 O   0  0  0  0  0  0  0  0  0  0  0  0
   10.1220   -2.0400    6.6180 N   0  0  0  0  0  0  0  0  0  0  0  0
   11.2360   -1.0830    6.4230 C   0  0  0  0  0  2  0  0  0  0  0  0
   12.4420   -1.3430    7.3270 C   0  0  0  0  0  2  0  0  0  0  0  0
   12.7160   -0.2580    8.3780 C   0  0  0  0  0  2  0  0  0  0  0  0
   13.3120    1.0530    7.8390 C   0  0  0  0  0  2  0  0  0  0  0  0
   12.3790    1.8780    7.0710 N   0  0  0  0  0  0  0  0  0  0  0  0
   11.3390    2.5730    7.8260 C   0  0  0  0  0  1  0  0  0  0  0  0
   12.5700    1.9880    5.6980 C   0  0  0  0  0  0  0  0  0  0  0  0
   13.4030    1.3240    5.0810 O   0  0  0  0  0  0  0  0  0  0  0  0
    9.9670   -4.0590    3.7830 H   0  0  0  0  0  0  0  0  0  0  0  0
    6.3760    3.6900    5.1470 C   0  0  0  0  0  3  0  0  0  0  0  0
    5.1660    3.6970    4.2000 C   0  0  0  0  0  2  0  0  0  0  0  0
    4.0480    4.5960    4.7250 C   0  0  0  0  0  2  0  0  0  0  0  0
    3.6420    4.2170    6.1470 C   0  0  0  0  0  2  0  0  0  0  0  0
    4.8390    4.2200    7.0930 C   0  0  0  0  0  2  0  0  0  0  0  0
    5.9620    3.3180    6.5840 C   0  0  0  0  0  2  0  0  0  0  0  0
    9.1570   -1.8740    7.7410 C   0  0  0  0  0  3  0  0  0  0  0  0
    9.7200   -2.4220    9.0490 C   0  0  0  0  0  1  0  0  0  0  0  0
    8.6780   -0.4370    7.9210 C   0  0  0  0  0  1  0  0  0  0  0  0
   11.9110    8.8230    4.2530 C   0  0  0  0  0  1  0  0  0  0  0  0
   10.7290    8.5590    3.5090 O   0  0  0  0  0  0  0  0  0  0  0  0
  1  6  1  0  0  0  0
  2  3  1  0  0  0  0
  2  1  2  0  0  0  0
  3  4  2  0  0  0  0
  4 11  1  0  0  0  0
  4  5  1  0  0  0  0
  5  7  1  0  0  0  0
  6  5  2  0  0  0  0
  8  7  2  0  0  0  0
  8 32  1  0  0  0  0
  9 10  1  0  0  0  0
  9  8  1  0  0  0  0
 10 18  1  0  0  0  0
 10 11  1  0  0  0  0
 11 12  2  0  0  0  0
 12 35  1  0  0  0  0
 13 12  1  0  0  0  0
 13 14  1  0  0  0  0
 15 14  2  0  0  0  0
 16 15  1  0  0  0  0
 17 18  1  0  0  0  0
 17 16  2  0  0  0  0
 18 13  2  0  0  0  0
 19 16  1  0  0  0  0
 19 21  1  0  0  0  0
 20 19  2  0  0  0  0
 21 22  1  0  0  0  0
 22 23  2  0  0  0  0
 22 25  1  0  0  0  0
 24 22  2  0  0  0  0
 25 41  1  0  0  0  0
 26 25  1  0  0  0  0
 26 27  1  0  0  0  0
 27 28  1  0  0  0  0
 29 28  1  0  0  0  0
 30 31  1  0  0  0  0
 30 29  1  0  0  0  0
 32 30  1  0  0  0  0
 33 32  2  0  0  0  0
 34 21  1  0  0  0  0
 35 40  1  0  0  0  0
 36 37  1  0  0  0  0
 36 35  1  0  0  0  0
 37 38  1  0  0  0  0
 38 39  1  0  0  0  0
 40 39  1  0  0  0  0
 41 43  1  0  0  0  0
 41 42  1  0  0  0  0
 45  1  1  0  0  0  0
 45 44  1  0  0  0  0
M  END
>  <minimizedAffinity>
-5.67284012

$$$$

 OpenBabel09082221433D

 45 50  0  0  0  0  0  0  0  0999 V2000
    8.0310   -2.1300    3.9440 C   0  0  0  0  0  0  0  0  0  0  0  0
    8.9570   -1.5200    3.1050 C   0  0  0  0  0  3  0  0  0  0  0  0
    9.2030   -0.1480    3.2160 C   0  0  0  0  0  3  0  0  0  0  0  0
    8.5420    0.6450    4.1690 C   0  0  0  0  0  0  0  0  0  0  0  0
    7.5670    0.0310    4.9910 C   0  0  0  0  0  0  0  0  0  0  0  0
    7.3430   -1.3520    4.8790 C   0  0  0  0  0  3  0  0  0  0  0  0
    6.7710    0.7500    6.0050 C   0  0  0  0  0  3  0  0  0  0  0  0
    6.3250    2.0060    5.8260 C   0  0  0  0  0  0  0  0  0  0  0  0
    6.4790    2.7650    4.5420 C   0  0  0  0  0  2  0  0  0  0  0  0
    7.8890    3.0650    4.3170 N   0  0  0  0  0  0  0  0  0  0  0  0
    8.8690    2.0890    4.2320 C   0  0  0  0  0  0  0  0  0  0  0  0
   10.0980    2.7560    4.2560 C   0  0  0  0  0  0  0  0  0  0  0  0
    9.8180    4.1680    4.2010 C   0  0  0  0  0  0  0  0  0  0  0  0
   10.6200    5.3340    4.1360 C   0  0  0  0  0  3  0  0  0  0  0  0
   10.0260    6.6040    4.1190 C   0  0  0  0  0  3  0  0  0  0  0  0
    8.6420    6.7290    4.1840 C   0  0  0  0  0  0  0  0  0  0  0  0
    7.8230    5.5930    4.2240 C   0  0  0  0  0  3  0  0  0  0  0  0
    8.4330    4.3260    4.2400 C   0  0  0  0  0  0  0  0  0  0  0  0
    8.0310    8.0760    4.1360 C   0  0  0  0  0  0  0  0  0  0  0  0
    8.4510    8.9410    3.3840 O   0  0  0  0  0  0  0  0  0  0  0  0
    6.8470    8.2710    4.8790 N   0  0  0  0  0  0  0  0  0  0  0  0
    6.9200    8.5700    6.5280 S   0  0  0  0  0  0  0  0  0  0  0  0
    7.9120    9.5990    6.7190 O   0  0  0  0  0  0  0  0  0  0  0  0
    5.5540    8.7670    6.9520 O   0  0  0  0  0  0  0  0  0  0  0  0
    7.4810    7.1250    7.1670 N   0  0  0  0  0  0  0  0  0  0  0  0
    6.5400    5.9880    7.2930 C   0  0  0  0  0  2  0  0  0  0  0  0
    5.6590    6.0460    8.5420 C   0  0  0  0  0  2  0  0  0  0  0  0
    5.9190    4.9430    9.5760 C   0  0  0  0  0  2  0  0  0  0  0  0
    5.4110    3.5420    9.1960 C   0  0  0  0  0  2  0  0  0  0  0  0
    6.1750    2.8820    8.1380 N   0  0  0  0  0  0  0  0  0  0  0  0
    7.5020    2.3860    8.4950 C   0  0  0  0  0  1  0  0  0  0  0  0
    5.5780    2.7250    6.8920 C   0  0  0  0  0  0  0  0  0  0  0  0
    4.4940    3.2270    6.5990 O   0  0  0  0  0  0  0  0  0  0  0  0
    6.3860    9.1070    4.5210 H   0  0  0  0  0  0  0  0  0  0  0  0
   11.4670    2.1100    4.3410 C   0  0  0  0  0  3  0  0  0  0  0  0
   11.5400    1.0120    5.4140 C   0  0  0  0  0  2  0  0  0  0  0  0
   12.9390    0.4010    5.4950 C   0  0  0  0  0  2  0  0  0  0  0  0
   13.4090   -0.1130    4.1370 C   0  0  0  0  0  2  0  0  0  0  0  0
   13.3480    0.9770    3.0720 C   0  0  0  0  0  2  0  0  0  0  0  0
   11.9520    1.5920    2.9740 C   0  0  0  0  0  2  0  0  0  0  0  0
    8.7670    7.1410    7.9200 C   0  0  0  0  0  3  0  0  0  0  0  0
    8.5670    7.6050    9.3600 C   0  0  0  0  0  1  0  0  0  0  0  0
    9.5090    5.8090    7.8830 C   0  0  0  0  0  1  0  0  0  0  0  0
    6.3130   -3.7740    3.9440 C   0  0  0  0  0  1  0  0  0  0  0  0
    7.6980   -3.4560    3.9480 O   0  0  0  0  0  0  0  0  0  0  0  0
  1 45  1  0  0  0  0
  1  6  1  0  0  0  0
  2  3  1  0  0  0  0
  2  1  2  0  0  0  0
  3  4  2  0  0  0  0
  4 11  1  0  0  0  0
  4  5  1  0  0  0  0
  5  7  1  0  0  0  0
  6  5  2  0  0  0  0
  8  7  2  0  0  0  0
  8 32  1  0  0  0  0
  9  8  1  0  0  0  0
 10  9  1  0  0  0  0
 11 12  2  0  0  0  0
 11 10  1  0  0  0  0
 12 35  1  0  0  0  0
 13 18  1  0  0  0  0
 13 12  1  0  0  0  0
 14 13  2  0  0  0  0
 15 14  1  0  0  0  0
 15 16  2  0  0  0  0
 16 17  1  0  0  0  0
 17 18  2  0  0  0  0
 18 10  1  0  0  0  0
 19 16  1  0  0  0  0
 19 21  1  0  0  0  0
 20 19  2  0  0  0  0
 21 22  1  0  0  0  0
 22 23  2  0  0  0  0
 22 24  2  0  0  0  0
 22 25  1  0  0  0  0
 25 26  1  0  0  0  0
 25 41  1  0  0  0  0
 26 27  1  0  0  0  0
 27 28  1  0  0  0  0
 29 28  1  0  0  0  0
 30 31  1  0  0  0  0
 30 29  1  0  0  0  0
 32 30  1  0  0  0  0
 33 32  2  0  0  0  0
 34 21  1  0  0  0  0
 35 36  1  0  0  0  0
 36 37  1  0  0  0  0
 38 37  1  0  0  0  0
 39 38  1  0  0  0  0
 40 39  1  0  0  0  0
 40 35  1  0  0  0  0
 41 42  1  0  0  0  0
 43 41  1  0  0  0  0
 44 45  1  0  0  0  0
M  END
>  <minimizedAffinity>
-5.31948662

$$$$

 OpenBabel09082221433D

 45 50  0  0  0  0  0  0  0  0999 V2000
   10.5590    6.5610    3.8200 C   0  0  0  0  0  0  0  0  0  0  0  0
    9.1880    6.4510    3.6170 C   0  0  0  0  0  3  0  0  0  0  0  0
    8.5510    5.2190    3.7980 C   0  0  0  0  0  3  0  0  0  0  0  0
    9.2620    4.0730    4.1940 C   0  0  0  0  0  0  0  0  0  0  0  0
   10.6630    4.1770    4.3560 C   0  0  0  0  0  0  0  0  0  0  0  0
   11.2870    5.4260    4.1870 C   0  0  0  0  0  3  0  0  0  0  0  0
   11.5380    3.0470    4.7300 C   0  0  0  0  0  3  0  0  0  0  0  0
   11.3360    1.7920    4.2900 C   0  0  0  0  0  0  0  0  0  0  0  0
   10.2870    1.4270    3.2820 C   0  0  0  0  0  2  0  0  0  0  0  0
    8.9630    1.6010    3.8690 N   0  0  0  0  0  0  0  0  0  0  0  0
    8.5110    2.8080    4.3770 C   0  0  0  0  0  0  0  0  0  0  0  0
    7.3200    2.5330    5.0570 C   0  0  0  0  0  0  0  0  0  0  0  0
    6.9950    1.1520    4.8060 C   0  0  0  0  0  0  0  0  0  0  0  0
    5.9110    0.3110    5.1570 C   0  0  0  0  0  3  0  0  0  0  0  0
    5.9020   -1.0360    4.7680 C   0  0  0  0  0  3  0  0  0  0  0  0
    6.9700   -1.5620    4.0480 C   0  0  0  0  0  0  0  0  0  0  0  0
    8.0440   -0.7480    3.6660 C   0  0  0  0  0  3  0  0  0  0  0  0
    8.0390    0.6010    4.0630 C   0  0  0  0  0  0  0  0  0  0  0  0
    6.9310   -2.9790    3.6210 C   0  0  0  0  0  0  0  0  0  0  0  0
    5.9060   -3.4900    3.2000 O   0  0  0  0  0  0  0  0  0  0  0  0
    8.1610   -3.6690    3.5730 N   0  0  0  0  0  0  0  0  0  0  0  0
    8.8320   -4.3060    4.9730 S   0  0  0  0  0  0  0  0  0  0  0  0
    7.7780   -5.0250    5.6470 O   0  0  0  0  0  0  0  0  0  0  0  0
   10.0410   -4.9760    4.5590 O   0  0  0  0  0  0  0  0  0  0  0  0
    9.2450   -2.9490    5.8660 N   0  0  0  0  0  0  0  0  0  0  0  0
   10.4580   -2.1880    5.4870 C   0  0  0  0  0  2  0  0  0  0  0  0
   11.7580   -2.7810    6.0330 C   0  0  0  0  0  2  0  0  0  0  0  0
   12.4830   -1.9190    7.0750 C   0  0  0  0  0  2  0  0  0  0  0  0
   13.1980   -0.6740    6.5260 C   0  0  0  0  0  2  0  0  0  0  0  0
   12.3060    0.4020    6.0950 N   0  0  0  0  0  0  0  0  0  0  0  0
   11.6320    1.1600    7.1470 C   0  0  0  0  0  1  0  0  0  0  0  0
   12.1980    0.6660    4.7340 C   0  0  0  0  0  0  0  0  0  0  0  0
   12.7120   -0.0440    3.8710 O   0  0  0  0  0  0  0  0  0  0  0  0
    8.0350   -4.4950    2.9900 H   0  0  0  0  0  0  0  0  0  0  0  0
    6.5300    3.5050    5.9110 C   0  0  0  0  0  3  0  0  0  0  0  0
    5.1650    3.8600    5.3010 C   0  0  0  0  0  2  0  0  0  0  0  0
    4.4070    4.8620    6.1700 C   0  0  0  0  0  2  0  0  0  0  0  0
    4.2650    4.3690    7.6070 C   0  0  0  0  0  2  0  0  0  0  0  0
    5.6190    4.0250    8.2200 C   0  0  0  0  0  2  0  0  0  0  0  0
    6.3850    3.0170    7.3650 C   0  0  0  0  0  2  0  0  0  0  0  0
    8.6170   -2.7710    7.2060 C   0  0  0  0  0  3  0  0  0  0  0  0
    9.3350   -3.5900    8.2740 C   0  0  0  0  0  1  0  0  0  0  0  0
    8.5050   -1.3110    7.6330 C   0  0  0  0  0  1  0  0  0  0  0  0
   12.2610    7.9660    4.7030 C   0  0  0  0  0  1  0  0  0  0  0  0
   11.3050    7.6990    3.6860 O   0  0  0  0  0  0  0  0  0  0  0  0
  1  6  1  0  0  0  0
  2  3  1  0  0  0  0
  2  1  2  0  0  0  0
  3  4  2  0  0  0  0
  4  5  1  0  0  0  0
  4 11  1  0  0  0  0
  5  7  1  0  0  0  0
  6  5  2  0  0  0  0
  8  7  2  0  0  0  0
  8 32  1  0  0  0  0
  9 10  1  0  0  0  0
  9  8  1  0  0  0  0
 10 18  1  0  0  0  0
 10 11  1  0  0  0  0
 11 12  2  0  0  0  0
 12 35  1  0  0  0  0
 13 12  1  0  0  0  0
 13 14  1  0  0  0  0
 15 14  2  0  0  0  0
 16 15  1  0  0  0  0
 17 16  2  0  0  0  0
 17 18  1  0  0  0  0
 18 13  2  0  0  0  0
 19 16  1  0  0  0  0
 20 19  2  0  0  0  0
 21 19  1  0  0  0  0
 21 22  1  0  0  0  0
 22 23  2  0  0  0  0
 22 25  1  0  0  0  0
 24 22  2  0  0  0  0
 25 41  1  0  0  0  0
 26 25  1  0  0  0  0
 26 27  1  0  0  0  0
 27 28  1  0  0  0  0
 29 28  1  0  0  0  0
 30 29  1  0  0  0  0
 30 31  1  0  0  0  0
 32 30  1  0  0  0  0
 33 32  2  0  0  0  0
 34 21  1  0  0  0  0
 35 40  1  0  0  0  0
 36 35  1  0  0  0  0
 36 37  1  0  0  0  0
 37 38  1  0  0  0  0
 38 39  1  0  0  0  0
 40 39  1  0  0  0  0
 41 43  1  0  0  0  0
 41 42  1  0  0  0  0
 45  1  1  0  0  0  0
 45 44  1  0  0  0  0
M  END
>  <minimizedAffinity>
-5.15676069

$$$$

 OpenBabel09082221433D

 45 50  0  0  0  0  0  0  0  0999 V2000
   12.4310    0.1410    4.0750 C   0  0  0  0  0  0  0  0  0  0  0  0
   12.3710    1.2230    3.2040 C   0  0  0  0  0  3  0  0  0  0  0  0
   11.3090    2.1300    3.2880 C   0  0  0  0  0  3  0  0  0  0  0  0
   10.2910    1.9860    4.2460 C   0  0  0  0  0  0  0  0  0  0  0  0
   10.3300    0.8600    5.1010 C   0  0  0  0  0  0  0  0  0  0  0  0
   11.4120   -0.0340    5.0160 C   0  0  0  0  0  3  0  0  0  0  0  0
    9.3070    0.5630    6.1240 C   0  0  0  0  0  3  0  0  0  0  0  0
    7.9970    0.8050    5.9370 C   0  0  0  0  0  0  0  0  0  0  0  0
    7.4200    1.2830    4.6370 C   0  0  0  0  0  2  0  0  0  0  0  0
    7.8710    2.6440    4.3720 N   0  0  0  0  0  0  0  0  0  0  0  0
    9.2070    2.9970    4.2780 C   0  0  0  0  0  0  0  0  0  0  0  0
    9.2510    4.3950    4.2600 C   0  0  0  0  0  0  0  0  0  0  0  0
    7.8890    4.8630    4.1910 C   0  0  0  0  0  0  0  0  0  0  0  0
    7.2860    6.1400    4.0880 C   0  0  0  0  0  3  0  0  0  0  0  0
    5.8900    6.2660    4.0660 C   0  0  0  0  0  3  0  0  0  0  0  0
    5.0840    5.1350    4.1640 C   0  0  0  0  0  0  0  0  0  0  0  0
    5.6540    3.8570    4.2420 C   0  0  0  0  0  3  0  0  0  0  0  0
    7.0550    3.7470    4.2620 C   0  0  0  0  0  0  0  0  0  0  0  0
    3.6130    5.2840    4.1110 C   0  0  0  0  0  0  0  0  0  0  0  0
    3.0780    6.0600    3.3350 O   0  0  0  0  0  0  0  0  0  0  0  0
    2.8480    4.3810    4.8800 N   0  0  0  0  0  0  0  0  0  0  0  0
    2.6260    4.6440    6.5230 S   0  0  0  0  0  0  0  0  0  0  0  0
    2.2360    6.0250    6.6730 O   0  0  0  0  0  0  0  0  0  0  0  0
    1.7680    3.5760    6.9780 O   0  0  0  0  0  0  0  0  0  0  0  0
    4.1570    4.4200    7.1690 N   0  0  0  0  0  0  0  0  0  0  0  0
    4.6650    3.0390    7.3360 C   0  0  0  0  0  2  0  0  0  0  0  0
    4.1710    2.3440    8.6060 C   0  0  0  0  0  2  0  0  0  0  0  0
    5.2540    2.0440    9.6510 C   0  0  0  0  0  2  0  0  0  0  0  0
    6.2080    0.8890    9.3050 C   0  0  0  0  0  2  0  0  0  0  0  0
    7.1640    1.1850    8.2380 N   0  0  0  0  0  0  0  0  0  0  0  0
    8.2610    2.0920    8.5690 C   0  0  0  0  0  1  0  0  0  0  0  0
    7.0000    0.5530    7.0100 C   0  0  0  0  0  0  0  0  0  0  0  0
    6.0200   -0.1380    6.7370 O   0  0  0  0  0  0  0  0  0  0  0  0
    1.8940    4.3930    4.5210 H   0  0  0  0  0  0  0  0  0  0  0  0
   10.4980    5.2540    4.3200 C   0  0  0  0  0  3  0  0  0  0  0  0
   10.2550    6.6910    3.8300 C   0  0  0  0  0  2  0  0  0  0  0  0
   11.5350    7.5220    3.8760 C   0  0  0  0  0  2  0  0  0  0  0  0
   12.1690    7.5060    5.2640 C   0  0  0  0  0  2  0  0  0  0  0  0
   12.4220    6.0810    5.7500 C   0  0  0  0  0  2  0  0  0  0  0  0
   11.1470    5.2400    5.7170 C   0  0  0  0  0  2  0  0  0  0  0  0
    4.7890    5.5610    7.8890 C   0  0  0  0  0  3  0  0  0  0  0  0
    4.2810    5.6690    9.3240 C   0  0  0  0  0  1  0  0  0  0  0  0
    6.3140    5.5250    7.8600 C   0  0  0  0  0  1  0  0  0  0  0  0
   13.3470   -1.7640    5.1640 C   0  0  0  0  0  1  0  0  0  0  0  0
   13.4090   -0.8130    4.1090 O   0  0  0  0  0  0  0  0  0  0  0  0
  1 45  1  0  0  0  0
  1  6  1  0  0  0  0
  2  3  1  0  0  0  0
  2  1  2  0  0  0  0
  3  4  2  0  0  0  0
  4 11  1  0  0  0  0
  4  5  1  0  0  0  0
  5  7  1  0  0  0  0
  6  5  2  0  0  0  0
  8  7  2  0  0  0  0
  8 32  1  0  0  0  0
  9  8  1  0  0  0  0
 10  9  1  0  0  0  0
 11 10  1  0  0  0  0
 12 11  2  0  0  0  0
 12 35  1  0  0  0  0
 13 12  1  0  0  0  0
 13 18  1  0  0  0  0
 14 13  2  0  0  0  0
 15 14  1  0  0  0  0
 15 16  2  0  0  0  0
 16 17  1  0  0  0  0
 17 18  2  0  0  0  0
 18 10  1  0  0  0  0
 19 16  1  0  0  0  0
 19 21  1  0  0  0  0
 20 19  2  0  0  0  0
 21 22  1  0  0  0  0
 22 23  2  0  0  0  0
 22 24  2  0  0  0  0
 22 25  1  0  0  0  0
 25 26  1  0  0  0  0
 25 41  1  0  0  0  0
 26 27  1  0  0  0  0
 27 28  1  0  0  0  0
 29 28  1  0  0  0  0
 30 31  1  0  0  0  0
 30 29  1  0  0  0  0
 32 30  1  0  0  0  0
 33 32  2  0  0  0  0
 34 21  1  0  0  0  0
 35 40  1  0  0  0  0
 36 37  1  0  0  0  0
 36 35  1  0  0  0  0
 37 38  1  0  0  0  0
 38 39  1  0  0  0  0
 40 39  1  0  0  0  0
 41 42  1  0  0  0  0
 43 41  1  0  0  0  0
 45 44  1  0  0  0  0
M  END
>  <minimizedAffinity>
-4.91399717

$$$$

 OpenBabel09082221433D

 45 50  0  0  0  0  0  0  0  0999 V2000
   11.3600    8.0260    6.3260 C   0  0  0  0  0  0  0  0  0  0  0  0
   10.0550    8.0510    6.8030 C   0  0  0  0  0  3  0  0  0  0  0  0
    9.2780    6.8880    6.7770 C   0  0  0  0  0  3  0  0  0  0  0  0
    9.7860    5.6740    6.2870 C   0  0  0  0  0  0  0  0  0  0  0  0
   11.0990    5.6610    5.7600 C   0  0  0  0  0  0  0  0  0  0  0  0
   11.8730    6.8340    5.8080 C   0  0  0  0  0  3  0  0  0  0  0  0
   11.7440    4.4670    5.1770 C   0  0  0  0  0  3  0  0  0  0  0  0
   11.0730    3.5610    4.4440 C   0  0  0  0  0  0  0  0  0  0  0  0
    9.6380    3.7230    4.0370 C   0  0  0  0  0  2  0  0  0  0  0  0
    8.7830    3.6360    5.2160 N   0  0  0  0  0  0  0  0  0  0  0  0
    8.9030    4.4830    6.3050 C   0  0  0  0  0  0  0  0  0  0  0  0
    8.0940    3.9520    7.3150 C   0  0  0  0  0  0  0  0  0  0  0  0
    7.3660    2.8480    6.7410 C   0  0  0  0  0  0  0  0  0  0  0  0
    6.3690    1.9640    7.2210 C   0  0  0  0  0  3  0  0  0  0  0  0
    5.8650    0.9480    6.3970 C   0  0  0  0  0  3  0  0  0  0  0  0
    6.3550    0.7890    5.1040 C   0  0  0  0  0  0  0  0  0  0  0  0
    7.3230    1.6640    4.5950 C   0  0  0  0  0  3  0  0  0  0  0  0
    7.8190    2.6790    5.4330 C   0  0  0  0  0  0  0  0  0  0  0  0
    5.7910   -0.2710    4.2390 C   0  0  0  0  0  0  0  0  0  0  0  0
    4.5940   -0.5090    4.2190 O   0  0  0  0  0  0  0  0  0  0  0  0
    6.6710   -0.8870    3.3240 N   0  0  0  0  0  0  0  0  0  0  0  0
    7.7010   -2.1120    3.8310 S   0  0  0  0  0  0  0  0  0  0  0  0
    6.8990   -3.0370    4.5940 O   0  0  0  0  0  0  0  0  0  0  0  0
    8.4090   -2.5420    2.6490 O   0  0  0  0  0  0  0  0  0  0  0  0
    8.7760   -1.3280    4.8500 N   0  0  0  0  0  0  0  0  0  0  0  0
    9.8530   -0.5040    4.2530 C   0  0  0  0  0  2  0  0  0  0  0  0
   11.0720   -1.3100    3.8020 C   0  0  0  0  0  2  0  0  0  0  0  0
   12.3610   -1.0400    4.5910 C   0  0  0  0  0  2  0  0  0  0  0  0
   13.0510    0.3020    4.2970 C   0  0  0  0  0  2  0  0  0  0  0  0
   12.3530    1.4750    4.8240 N   0  0  0  0  0  0  0  0  0  0  0  0
   12.4050    1.6780    6.2700 C   0  0  0  0  0  1  0  0  0  0  0  0
   11.7370    2.3380    3.9230 C   0  0  0  0  0  0  0  0  0  0  0  0
   11.6390    2.0940    2.7210 O   0  0  0  0  0  0  0  0  0  0  0  0
    6.1080   -1.3500    2.6110 H   0  0  0  0  0  0  0  0  0  0  0  0
    8.0130    4.4380    8.7480 C   0  0  0  0  0  3  0  0  0  0  0  0
    6.6290    5.0020    9.1080 C   0  0  0  0  0  2  0  0  0  0  0  0
    6.5880    5.5100   10.5480 C   0  0  0  0  0  2  0  0  0  0  0  0
    7.0270    4.4340   11.5380 C   0  0  0  0  0  2  0  0  0  0  0  0
    8.4050    3.8800   11.1910 C   0  0  0  0  0  2  0  0  0  0  0  0
    8.4580    3.3610    9.7550 C   0  0  0  0  0  2  0  0  0  0  0  0
    8.8500   -1.7730    6.2700 C   0  0  0  0  0  3  0  0  0  0  0  0
    9.7390   -3.0030    6.4260 C   0  0  0  0  0  1  0  0  0  0  0  0
    9.2870   -0.6690    7.2290 C   0  0  0  0  0  1  0  0  0  0  0  0
   13.0590    9.2630    7.4370 C   0  0  0  0  0  1  0  0  0  0  0  0
   12.2280    9.0820    6.2980 O   0  0  0  0  0  0  0  0  0  0  0  0
  1  2  1  0  0  0  0
  3  2  2  0  0  0  0
  4 11  1  0  0  0  0
  4  3  1  0  0  0  0
  5  6  1  0  0  0  0
  5  4  2  0  0  0  0
  6  1  2  0  0  0  0
  7  5  1  0  0  0  0
  8  7  2  0  0  0  0
  9  8  1  0  0  0  0
  9 10  1  0  0  0  0
 10 18  1  0  0  0  0
 10 11  1  0  0  0  0
 11 12  2  0  0  0  0
 12 35  1  0  0  0  0
 13 14  1  0  0  0  0
 13 12  1  0  0  0  0
 15 14  2  0  0  0  0
 16 15  1  0  0  0  0
 17 16  2  0  0  0  0
 17 18  1  0  0  0  0
 18 13  2  0  0  0  0
 19 16  1  0  0  0  0
 20 19  2  0  0  0  0
 21 22  1  0  0  0  0
 21 19  1  0  0  0  0
 22 23  2  0  0  0  0
 22 25  1  0  0  0  0
 24 22  2  0  0  0  0
 25 41  1  0  0  0  0
 26 25  1  0  0  0  0
 27 26  1  0  0  0  0
 27 28  1  0  0  0  0
 29 28  1  0  0  0  0
 29 30  1  0  0  0  0
 30 31  1  0  0  0  0
 32  8  1  0  0  0  0
 32 30  1  0  0  0  0
 33 32  2  0  0  0  0
 34 21  1  0  0  0  0
 35 36  1  0  0  0  0
 35 40  1  0  0  0  0
 36 37  1  0  0  0  0
 37 38  1  0  0  0  0
 39 38  1  0  0  0  0
 40 39  1  0  0  0  0
 41 42  1  0  0  0  0
 41 43  1  0  0  0  0
 45  1  1  0  0  0  0
 45 44  1  0  0  0  0
M  END
>  <minimizedAffinity>
-4.88911343

$$$$

 OpenBabel09082221433D

 45 50  0  0  0  0  0  0  0  0999 V2000
    7.5630   -1.1980    2.8940 C   0  0  0  0  0  0  0  0  0  0  0  0
    8.9250   -1.1570    2.6220 C   0  0  0  0  0  3  0  0  0  0  0  0
    9.7200   -0.1500    3.1800 C   0  0  0  0  0  3  0  0  0  0  0  0
    9.1780    0.8300    4.0290 C   0  0  0  0  0  0  0  0  0  0  0  0
    7.7840    0.8130    4.2690 C   0  0  0  0  0  0  0  0  0  0  0  0
    7.0010   -0.2150    3.7140 C   0  0  0  0  0  3  0  0  0  0  0  0
    7.0770    1.8030    5.1060 C   0  0  0  0  0  3  0  0  0  0  0  0
    7.4140    3.1050    5.1350 C   0  0  0  0  0  0  0  0  0  0  0  0
    8.4520    3.7130    4.2400 C   0  0  0  0  0  2  0  0  0  0  0  0
    9.7690    3.2020    4.6000 N   0  0  0  0  0  0  0  0  0  0  0  0
   10.0900    1.8550    4.5910 C   0  0  0  0  0  0  0  0  0  0  0  0
   11.3370    1.7370    5.2130 C   0  0  0  0  0  0  0  0  0  0  0  0
   11.8210    3.0730    5.4550 C   0  0  0  0  0  0  0  0  0  0  0  0
   13.0170    3.6110    5.9880 C   0  0  0  0  0  3  0  0  0  0  0  0
   13.1770    4.9980    6.1170 C   0  0  0  0  0  3  0  0  0  0  0  0
   12.1500    5.8580    5.7370 C   0  0  0  0  0  0  0  0  0  0  0  0
   10.9660    5.3550    5.1840 C   0  0  0  0  0  3  0  0  0  0  0  0
   10.8200    3.9620    5.0610 C   0  0  0  0  0  0  0  0  0  0  0  0
   12.3470    7.3200    5.8540 C   0  0  0  0  0  0  0  0  0  0  0  0
   13.4070    7.8470    5.5560 O   0  0  0  0  0  0  0  0  0  0  0  0
   11.2120    8.0970    6.1710 N   0  0  0  0  0  0  0  0  0  0  0  0
   10.6940    8.2300    7.7620 S   0  0  0  0  0  0  0  0  0  0  0  0
   11.8610    8.5390    8.5530 O   0  0  0  0  0  0  0  0  0  0  0  0
    9.5600    9.1230    7.7310 O   0  0  0  0  0  0  0  0  0  0  0  0
   10.1560    6.6870    8.1330 N   0  0  0  0  0  0  0  0  0  0  0  0
    8.8400    6.2460    7.6150 C   0  0  0  0  0  2  0  0  0  0  0  0
    7.6530    6.7200    8.4540 C   0  0  0  0  0  2  0  0  0  0  0  0
    6.8760    5.6080    9.1720 C   0  0  0  0  0  2  0  0  0  0  0  0
    5.9840    4.7340    8.2750 C   0  0  0  0  0  2  0  0  0  0  0  0
    6.7130    3.8130    7.4030 N   0  0  0  0  0  0  0  0  0  0  0  0
    7.3360    2.6550    8.0410 C   0  0  0  0  0  1  0  0  0  0  0  0
    6.7230    4.0650    6.0350 C   0  0  0  0  0  0  0  0  0  0  0  0
    6.2610    5.0920    5.5400 O   0  0  0  0  0  0  0  0  0  0  0  0
   11.4140    9.0640    5.9200 H   0  0  0  0  0  0  0  0  0  0  0  0
   12.0380    0.4440    5.5800 C   0  0  0  0  0  3  0  0  0  0  0  0
   11.1320   -0.5230    6.3580 C   0  0  0  0  0  2  0  0  0  0  0  0
   11.8750   -1.8030    6.7380 C   0  0  0  0  0  2  0  0  0  0  0  0
   12.4950   -2.4780    5.5180 C   0  0  0  0  0  2  0  0  0  0  0  0
   13.4040   -1.5240    4.7490 C   0  0  0  0  0  2  0  0  0  0  0  0
   12.6720   -0.2420    4.3560 C   0  0  0  0  0  2  0  0  0  0  0  0
   10.8200    5.9620    9.2530 C   0  0  0  0  0  3  0  0  0  0  0  0
   10.2930    6.4230   10.6090 C   0  0  0  0  0  1  0  0  0  0  0  0
   10.7300    4.4440    9.1300 C   0  0  0  0  0  1  0  0  0  0  0  0
    7.0480   -2.8380    1.2510 C   0  0  0  0  0  1  0  0  0  0  0  0
    6.6740   -2.1250    2.4230 O   0  0  0  0  0  0  0  0  0  0  0  0
  1  6  1  0  0  0  0
  2  1  2  0  0  0  0
  2  3  1  0  0  0  0
  3  4  2  0  0  0  0
  4  5  1  0  0  0  0
  4 11  1  0  0  0  0
  5  7  1  0  0  0  0
  6  5  2  0  0  0  0
  7  8  2  0  0  0  0
  8 32  1  0  0  0  0
  9 10  1  0  0  0  0
  9  8  1  0  0  0  0
 10 18  1  0  0  0  0
 11 10  1  0  0  0  0
 11 12  2  0  0  0  0
 12 13  1  0  0  0  0
 12 35  1  0  0  0  0
 13 14  1  0  0  0  0
 14 15  2  0  0  0  0
 16 19  1  0  0  0  0
 16 15  1  0  0  0  0
 17 16  2  0  0  0  0
 18 17  1  0  0  0  0
 18 13  2  0  0  0  0
 19 21  1  0  0  0  0
 20 19  2  0  0  0  0
 21 22  1  0  0  0  0
 22 25  1  0  0  0  0
 22 23  2  0  0  0  0
 24 22  2  0  0  0  0
 25 41  1  0  0  0  0
 26 25  1  0  0  0  0
 26 27  1  0  0  0  0
 27 28  1  0  0  0  0
 29 28  1  0  0  0  0
 30 31  1  0  0  0  0
 30 29  1  0  0  0  0
 32 30  1  0  0  0  0
 33 32  2  0  0  0  0
 34 21  1  0  0  0  0
 35 36  1  0  0  0  0
 36 37  1  0  0  0  0
 38 37  1  0  0  0  0
 39 38  1  0  0  0  0
 40 39  1  0  0  0  0
 40 35  1  0  0  0  0
 41 42  1  0  0  0  0
 43 41  1  0  0  0  0
 44 45  1  0  0  0  0
 45  1  1  0  0  0  0
M  END
>  <minimizedAffinity>
-4.65277243

$$$$

 OpenBabel09082221433D

 45 50  0  0  0  0  0  0  0  0999 V2000
    6.0470   -2.5680    1.0390 C   0  0  0  0  0  0  0  0  0  0  0  0
    5.0580   -2.1880    1.9390 C   0  0  0  0  0  3  0  0  0  0  0  0
    5.3970   -1.4610    3.0850 C   0  0  0  0  0  3  0  0  0  0  0  0
    6.7250   -1.0870    3.3530 C   0  0  0  0  0  0  0  0  0  0  0  0
    7.7350   -1.5130    2.4590 C   0  0  0  0  0  0  0  0  0  0  0  0
    7.3760   -2.2300    1.3030 C   0  0  0  0  0  3  0  0  0  0  0  0
    9.1720   -1.2270    2.6390 C   0  0  0  0  0  3  0  0  0  0  0  0
    9.7680   -1.2120    3.8450 C   0  0  0  0  0  0  0  0  0  0  0  0
    9.0730   -1.6020    5.1160 C   0  0  0  0  0  2  0  0  0  0  0  0
    8.0470   -0.6160    5.4350 N   0  0  0  0  0  0  0  0  0  0  0  0
    7.0010   -0.3060    4.5820 C   0  0  0  0  0  0  0  0  0  0  0  0
    6.3760    0.8280    5.1130 C   0  0  0  0  0  0  0  0  0  0  0  0
    6.9870    1.0920    6.3910 C   0  0  0  0  0  0  0  0  0  0  0  0
    6.7620    2.0410    7.4180 C   0  0  0  0  0  3  0  0  0  0  0  0
    7.5680    2.0510    8.5650 C   0  0  0  0  0  3  0  0  0  0  0  0
    8.6100    1.1370    8.6940 C   0  0  0  0  0  0  0  0  0  0  0  0
    8.8400    0.1720    7.7060 C   0  0  0  0  0  3  0  0  0  0  0  0
    8.0230    0.1740    6.5620 C   0  0  0  0  0  0  0  0  0  0  0  0
    9.4330    1.1440    9.9240 C   0  0  0  0  0  0  0  0  0  0  0  0
    8.9330    1.3010   11.0260 O   0  0  0  0  0  0  0  0  0  0  0  0
   10.7960    0.8040    9.7860 N   0  0  0  0  0  0  0  0  0  0  0  0
   11.9060    1.9490    9.2630 S   0  0  0  0  0  0  0  0  0  0  0  0
   11.6710    3.1400   10.0430 O   0  0  0  0  0  0  0  0  0  0  0  0
   13.1900    1.2890    9.2850 O   0  0  0  0  0  0  0  0  0  0  0  0
   11.4680    2.2260    7.6690 N   0  0  0  0  0  0  0  0  0  0  0  0
   11.8380    1.2230    6.6440 C   0  0  0  0  0  2  0  0  0  0  0  0
   13.2740    1.3570    6.1350 C   0  0  0  0  0  2  0  0  0  0  0  0
   13.4090    1.7740    4.6640 C   0  0  0  0  0  2  0  0  0  0  0  0
   13.0690    0.6870    3.6310 C   0  0  0  0  0  2  0  0  0  0  0  0
   11.6440    0.3710    3.5240 N   0  0  0  0  0  0  0  0  0  0  0  0
   10.7960    1.3650    2.8700 C   0  0  0  0  0  1  0  0  0  0  0  0
   11.2030   -0.8590    3.9990 C   0  0  0  0  0  0  0  0  0  0  0  0
   11.9260   -1.6370    4.6190 O   0  0  0  0  0  0  0  0  0  0  0  0
   11.1520    0.5530   10.7080 H   0  0  0  0  0  0  0  0  0  0  0  0
    5.2760    1.6360    4.4540 C   0  0  0  0  0  3  0  0  0  0  0  0
    3.9070    1.4340    5.1230 C   0  0  0  0  0  2  0  0  0  0  0  0
    2.8160    2.2380    4.4200 C   0  0  0  0  0  2  0  0  0  0  0  0
    3.1770    3.7180    4.3260 C   0  0  0  0  0  2  0  0  0  0  0  0
    4.5310    3.9240    3.6520 C   0  0  0  0  0  2  0  0  0  0  0  0
    5.6340    3.1310    4.3510 C   0  0  0  0  0  2  0  0  0  0  0  0
   11.0680    3.6080    7.2800 C   0  0  0  0  0  3  0  0  0  0  0  0
   12.2850    4.4830    6.9920 C   0  0  0  0  0  1  0  0  0  0  0  0
   10.0880    3.6480    6.1110 C   0  0  0  0  0  1  0  0  0  0  0  0
    6.2810   -4.6290   -0.1250 C   0  0  0  0  0  1  0  0  0  0  0  0
    5.8560   -3.2720   -0.1180 O   0  0  0  0  0  0  0  0  0  0  0  0
  1  6  2  0  0  0  0
  1  2  1  0  0  0  0
  2  3  2  0  0  0  0
  3  4  1  0  0  0  0
  4 11  1  0  0  0  0
  5  7  1  0  0  0  0
  5  4  2  0  0  0  0
  6  5  1  0  0  0  0
  7  8  2  0  0  0  0
  8 32  1  0  0  0  0
  8  9  1  0  0  0  0
  9 10  1  0  0  0  0
 10 18  1  0  0  0  0
 11 12  2  0  0  0  0
 11 10  1  0  0  0  0
 12 13  1  0  0  0  0
 13 18  2  0  0  0  0
 13 14  1  0  0  0  0
 14 15  2  0  0  0  0
 15 16  1  0  0  0  0
 16 19  1  0  0  0  0
 17 16  2  0  0  0  0
 18 17  1  0  0  0  0
 19 20  2  0  0  0  0
 21 19  1  0  0  0  0
 21 34  1  0  0  0  0
 22 24  2  0  0  0  0
 22 21  1  0  0  0  0
 22 23  2  0  0  0  0
 25 22  1  0  0  0  0
 26 25  1  0  0  0  0
 27 26  1  0  0  0  0
 28 27  1  0  0  0  0
 29 28  1  0  0  0  0
 30 29  1  0  0  0  0
 30 32  1  0  0  0  0
 31 30  1  0  0  0  0
 32 33  2  0  0  0  0
 35 12  1  0  0  0  0
 35 36  1  0  0  0  0
 37 36  1  0  0  0  0
 38 37  1  0  0  0  0
 39 38  1  0  0  0  0
 39 40  1  0  0  0  0
 40 35  1  0  0  0  0
 41 25  1  0  0  0  0
 42 41  1  0  0  0  0
 43 41  1  0  0  0  0
 44 45  1  0  0  0  0
 45  1  1  0  0  0  0
M  END
>  <minimizedAffinity>
-4.56029558

$$$$

 OpenBabel09082221433D

 45 50  0  0  0  0  0  0  0  0999 V2000
    1.5020   -2.0630    5.3450 C   0  0  0  0  0  0  0  0  0  0  0  0
    1.7730   -1.7440    4.0190 C   0  0  0  0  0  3  0  0  0  0  0  0
    3.0910   -1.5210    3.6080 C   0  0  0  0  0  3  0  0  0  0  0  0
    4.1680   -1.6200    4.5050 C   0  0  0  0  0  0  0  0  0  0  0  0
    3.8870   -1.8990    5.8630 C   0  0  0  0  0  0  0  0  0  0  0  0
    2.5590   -2.1380    6.2570 C   0  0  0  0  0  3  0  0  0  0  0  0
    4.9160   -1.9930    6.9180 C   0  0  0  0  0  3  0  0  0  0  0  0
    6.0010   -1.1980    6.9500 C   0  0  0  0  0  0  0  0  0  0  0  0
    6.2230   -0.0590    5.9990 C   0  0  0  0  0  2  0  0  0  0  0  0
    6.4490   -0.5800    4.6560 N   0  0  0  0  0  0  0  0  0  0  0  0
    5.5370   -1.3810    3.9880 C   0  0  0  0  0  0  0  0  0  0  0  0
    6.1920   -1.8710    2.8540 C   0  0  0  0  0  0  0  0  0  0  0  0
    7.4730   -1.2140    2.7840 C   0  0  0  0  0  0  0  0  0  0  0  0
    8.5470   -1.2350    1.8610 C   0  0  0  0  0  3  0  0  0  0  0  0
    9.7020   -0.4770    2.0980 C   0  0  0  0  0  3  0  0  0  0  0  0
    9.8090    0.2900    3.2540 C   0  0  0  0  0  0  0  0  0  0  0  0
    8.7530    0.3490    4.1730 C   0  0  0  0  0  3  0  0  0  0  0  0
    7.6010   -0.4170    3.9210 C   0  0  0  0  0  0  0  0  0  0  0  0
   11.0240    1.1060    3.4740 C   0  0  0  0  0  0  0  0  0  0  0  0
   11.5510    1.7250    2.5640 O   0  0  0  0  0  0  0  0  0  0  0  0
   11.4560    1.2670    4.8080 N   0  0  0  0  0  0  0  0  0  0  0  0
   12.3570    0.0660    5.5580 S   0  0  0  0  0  0  0  0  0  0  0  0
   13.4060   -0.3010    4.6380 O   0  0  0  0  0  0  0  0  0  0  0  0
   12.6660    0.5720    6.8740 O   0  0  0  0  0  0  0  0  0  0  0  0
   11.2740   -1.2050    5.7090 N   0  0  0  0  0  0  0  0  0  0  0  0
   10.2460   -1.1420    6.7740 C   0  0  0  0  0  2  0  0  0  0  0  0
   10.7500   -1.5820    8.1500 C   0  0  0  0  0  2  0  0  0  0  0  0
   10.1250   -2.8750    8.6920 C   0  0  0  0  0  2  0  0  0  0  0  0
    8.6730   -2.7550    9.1840 C   0  0  0  0  0  2  0  0  0  0  0  0
    7.6800   -2.5910    8.1220 N   0  0  0  0  0  0  0  0  0  0  0  0
    7.3880   -3.7680    7.3060 C   0  0  0  0  0  1  0  0  0  0  0  0
    7.0500   -1.3580    7.9900 C   0  0  0  0  0  0  0  0  0  0  0  0
    7.3790   -0.3650    8.6370 O   0  0  0  0  0  0  0  0  0  0  0  0
   12.0840    2.0700    4.8400 H   0  0  0  0  0  0  0  0  0  0  0  0
    5.6590   -2.9130    1.8900 C   0  0  0  0  0  3  0  0  0  0  0  0
    5.4760   -2.3660    0.4650 C   0  0  0  0  0  2  0  0  0  0  0  0
    4.9110   -3.4310   -0.4740 C   0  0  0  0  0  2  0  0  0  0  0  0
    5.7610   -4.6980   -0.4670 C   0  0  0  0  0  2  0  0  0  0  0  0
    5.9350   -5.2500    0.9450 C   0  0  0  0  0  2  0  0  0  0  0  0
    6.5080   -4.1980    1.8940 C   0  0  0  0  0  2  0  0  0  0  0  0
   11.6030   -2.4930    5.0370 C   0  0  0  0  0  3  0  0  0  0  0  0
   12.6080   -3.3070    5.8490 C   0  0  0  0  0  1  0  0  0  0  0  0
   10.3750   -3.3340    4.7030 C   0  0  0  0  0  1  0  0  0  0  0  0
    0.2320   -2.9350    7.1560 C   0  0  0  0  0  1  0  0  0  0  0  0
    0.2680   -2.3110    5.8790 O   0  0  0  0  0  0  0  0  0  0  0  0
  1 45  1  0  0  0  0
  1  6  1  0  0  0  0
  2  1  2  0  0  0  0
  3  2  1  0  0  0  0
  3  4  2  0  0  0  0
  4  5  1  0  0  0  0
  5  6  2  0  0  0  0
  5  7  1  0  0  0  0
  7  8  2  0  0  0  0
  8 32  1  0  0  0  0
  9  8  1  0  0  0  0
 10  9  1  0  0  0  0
 11  4  1  0  0  0  0
 11 10  1  0  0  0  0
 12 11  2  0  0  0  0
 13 12  1  0  0  0  0
 13 18  1  0  0  0  0
 14 15  1  0  0  0  0
 14 13  2  0  0  0  0
 15 16  2  0  0  0  0
 16 19  1  0  0  0  0
 16 17  1  0  0  0  0
 18 17  2  0  0  0  0
 18 10  1  0  0  0  0
 19 21  1  0  0  0  0
 20 19  2  0  0  0  0
 21 34  1  0  0  0  0
 21 22  1  0  0  0  0
 22 25  1  0  0  0  0
 22 24  2  0  0  0  0
 23 22  2  0  0  0  0
 25 26  1  0  0  0  0
 26 27  1  0  0  0  0
 27 28  1  0  0  0  0
 28 29  1  0  0  0  0
 30 29  1  0  0  0  0
 31 30  1  0  0  0  0
 32 30  1  0  0  0  0
 32 33  2  0  0  0  0
 35 40  1  0  0  0  0
 35 12  1  0  0  0  0
 36 35  1  0  0  0  0
 37 38  1  0  0  0  0
 37 36  1  0  0  0  0
 38 39  1  0  0  0  0
 39 40  1  0  0  0  0
 41 25  1  0  0  0  0
 41 42  1  0  0  0  0
 43 41  1  0  0  0  0
 45 44  1  0  0  0  0
M  END
>  <minimizedAffinity>
-4.49689674

$$$$

 OpenBabel09082221433D

 45 50  0  0  0  0  0  0  0  0999 V2000
    4.7850   -2.7140    4.7060 C   0  0  0  0  0  0  0  0  0  0  0  0
    5.9280   -2.8180    3.9220 C   0  0  0  0  0  3  0  0  0  0  0  0
    6.8740   -1.7870    3.9250 C   0  0  0  0  0  3  0  0  0  0  0  0
    6.7080   -0.6370    4.7160 C   0  0  0  0  0  0  0  0  0  0  0  0
    5.5220   -0.5140    5.4780 C   0  0  0  0  0  0  0  0  0  0  0  0
    4.5890   -1.5660    5.4770 C   0  0  0  0  0  3  0  0  0  0  0  0
    5.2000    0.6550    6.3210 C   0  0  0  0  0  3  0  0  0  0  0  0
    5.5140    1.9150    5.9700 C   0  0  0  0  0  0  0  0  0  0  0  0
    6.1090    2.2820    4.6430 C   0  0  0  0  0  2  0  0  0  0  0  0
    7.4640    1.7510    4.5510 N   0  0  0  0  0  0  0  0  0  0  0  0
    7.7620    0.4040    4.6730 C   0  0  0  0  0  0  0  0  0  0  0  0
    9.1540    0.3100    4.7700 C   0  0  0  0  0  0  0  0  0  0  0  0
    9.6870    1.6300    4.5460 C   0  0  0  0  0  0  0  0  0  0  0  0
   10.9940    2.1680    4.4580 C   0  0  0  0  0  3  0  0  0  0  0  0
   11.1840    3.5410    4.2500 C   0  0  0  0  0  3  0  0  0  0  0  0
   10.0870    4.3910    4.1460 C   0  0  0  0  0  0  0  0  0  0  0  0
    8.7830    3.8830    4.2040 C   0  0  0  0  0  3  0  0  0  0  0  0
    8.6080    2.5040    4.4130 C   0  0  0  0  0  0  0  0  0  0  0  0
   10.3070    5.8330    3.8980 C   0  0  0  0  0  0  0  0  0  0  0  0
   11.1590    6.2240    3.1170 O   0  0  0  0  0  0  0  0  0  0  0  0
    9.3860    6.7310    4.4800 N   0  0  0  0  0  0  0  0  0  0  0  0
    9.5400    7.1780    6.0900 S   0  0  0  0  0  0  0  0  0  0  0  0
   10.9230    7.5380    6.2900 O   0  0  0  0  0  0  0  0  0  0  0  0
    8.4820    8.1300    6.3350 O   0  0  0  0  0  0  0  0  0  0  0  0
    9.2020    5.7660    6.9260 N   0  0  0  0  0  0  0  0  0  0  0  0
    7.7900    5.3350    7.0550 C   0  0  0  0  0  2  0  0  0  0  0  0
    7.0290    6.0300    8.1850 C   0  0  0  0  0  2  0  0  0  0  0  0
    6.6060    5.1190    9.3450 C   0  0  0  0  0  2  0  0  0  0  0  0
    5.4370    4.1660    9.0490 C   0  0  0  0  0  2  0  0  0  0  0  0
    5.7650    3.0570    8.1530 N   0  0  0  0  0  0  0  0  0  0  0  0
    6.5960    1.9880    8.7050 C   0  0  0  0  0  1  0  0  0  0  0  0
    5.2310    3.0640    6.8690 C   0  0  0  0  0  0  0  0  0  0  0  0
    4.6060    4.0180    6.4090 O   0  0  0  0  0  0  0  0  0  0  0  0
    9.4670    7.6230    3.9920 H   0  0  0  0  0  0  0  0  0  0  0  0
    9.9490   -0.9450    5.0720 C   0  0  0  0  0  3  0  0  0  0  0  0
   10.7700   -1.4330    3.8670 C   0  0  0  0  0  2  0  0  0  0  0  0
   11.5360   -2.7140    4.1940 C   0  0  0  0  0  2  0  0  0  0  0  0
   12.4100   -2.5470    5.4340 C   0  0  0  0  0  2  0  0  0  0  0  0
   11.5980   -2.0720    6.6350 C   0  0  0  0  0  2  0  0  0  0  0  0
   10.8320   -0.7870    6.3240 C   0  0  0  0  0  2  0  0  0  0  0  0
   10.2580    5.2040    7.8140 C   0  0  0  0  0  3  0  0  0  0  0  0
   10.2840    5.9070    9.1680 C   0  0  0  0  0  1  0  0  0  0  0  0
   10.1570    3.6920    7.9950 C   0  0  0  0  0  1  0  0  0  0  0  0
    2.6980   -3.3340    5.6620 C   0  0  0  0  0  1  0  0  0  0  0  0
    3.7870   -3.6440    4.8030 O   0  0  0  0  0  0  0  0  0  0  0  0
  1 45  1  0  0  0  0
  1  6  1  0  0  0  0
  2  3  1  0  0  0  0
  2  1  2  0  0  0  0
  3  4  2  0  0  0  0
  4  5  1  0  0  0  0
  5  7  1  0  0  0  0
  6  5  2  0  0  0  0
  8  7  2  0  0  0  0
  8 32  1  0  0  0  0
  9  8  1  0  0  0  0
 10  9  1  0  0  0  0
 10 11  1  0  0  0  0
 11  4  1  0  0  0  0
 11 12  2  0  0  0  0
 12 35  1  0  0  0  0
 13 12  1  0  0  0  0
 14 13  1  0  0  0  0
 15 14  2  0  0  0  0
 16 17  2  0  0  0  0
 16 15  1  0  0  0  0
 17 18  1  0  0  0  0
 18 13  2  0  0  0  0
 18 10  1  0  0  0  0
 19 16  1  0  0  0  0
 19 21  1  0  0  0  0
 20 19  2  0  0  0  0
 21 22  1  0  0  0  0
 22 23  2  0  0  0  0
 22 24  2  0  0  0  0
 22 25  1  0  0  0  0
 25 26  1  0  0  0  0
 25 41  1  0  0  0  0
 26 27  1  0  0  0  0
 27 28  1  0  0  0  0
 29 28  1  0  0  0  0
 30 31  1  0  0  0  0
 30 29  1  0  0  0  0
 32 30  1  0  0  0  0
 33 32  2  0  0  0  0
 34 21  1  0  0  0  0
 35 40  1  0  0  0  0
 36 37  1  0  0  0  0
 36 35  1  0  0  0  0
 37 38  1  0  0  0  0
 38 39  1  0  0  0  0
 40 39  1  0  0  0  0
 41 43  1  0  0  0  0
 41 42  1  0  0  0  0
 45 44  1  0  0  0  0
M  END
>  <minimizedAffinity>
-4.48855543

$$$$

 OpenBabel09082221433D

 45 50  0  0  0  0  0  0  0  0999 V2000
   11.9810    0.8870    5.1210 C   0  0  0  0  0  0  0  0  0  0  0  0
   12.2520    1.8260    4.1330 C   0  0  0  0  0  3  0  0  0  0  0  0
   11.3620    2.8810    3.9070 C   0  0  0  0  0  3  0  0  0  0  0  0
   10.1890    3.0300    4.6670 C   0  0  0  0  0  0  0  0  0  0  0  0
    9.8920    2.0480    5.6420 C   0  0  0  0  0  0  0  0  0  0  0  0
   10.8050    1.0030    5.8680 C   0  0  0  0  0  3  0  0  0  0  0  0
    8.6780    2.0580    6.4820 C   0  0  0  0  0  3  0  0  0  0  0  0
    7.4780    2.4590    6.0240 C   0  0  0  0  0  0  0  0  0  0  0  0
    7.2160    2.8200    4.5920 C   0  0  0  0  0  2  0  0  0  0  0  0
    7.9300    4.0470    4.2580 N   0  0  0  0  0  0  0  0  0  0  0  0
    9.3030    4.1830    4.3750 C   0  0  0  0  0  0  0  0  0  0  0  0
    9.5870    5.5410    4.2000 C   0  0  0  0  0  0  0  0  0  0  0  0
    8.3560    6.1880    3.8220 C   0  0  0  0  0  0  0  0  0  0  0  0
    8.0040    7.5110    3.4570 C   0  0  0  0  0  3  0  0  0  0  0  0
    6.6740    7.8350    3.1590 C   0  0  0  0  0  3  0  0  0  0  0  0
    5.6820    6.8610    3.2360 C   0  0  0  0  0  0  0  0  0  0  0  0
    6.0050    5.5390    3.5700 C   0  0  0  0  0  3  0  0  0  0  0  0
    7.3440    5.2290    3.8670 C   0  0  0  0  0  0  0  0  0  0  0  0
    4.2880    7.2150    2.8900 C   0  0  0  0  0  0  0  0  0  0  0  0
    4.0300    7.9380    1.9420 O   0  0  0  0  0  0  0  0  0  0  0  0
    3.2630    6.5570    3.6030 N   0  0  0  0  0  0  0  0  0  0  0  0
    2.8190    7.0870    5.1320 S   0  0  0  0  0  0  0  0  0  0  0  0
    2.6500    8.5170    5.0420 O   0  0  0  0  0  0  0  0  0  0  0  0
    1.7270    6.2350    5.5410 O   0  0  0  0  0  0  0  0  0  0  0  0
    4.1590    6.7390    6.0770 N   0  0  0  0  0  0  0  0  0  0  0  0
    4.3900    5.3380    6.4980 C   0  0  0  0  0  2  0  0  0  0  0  0
    3.5790    4.9170    7.7250 C   0  0  0  0  0  2  0  0  0  0  0  0
    4.4070    4.6180    8.9830 C   0  0  0  0  0  2  0  0  0  0  0  0
    5.1940    3.2980    8.9620 C   0  0  0  0  0  2  0  0  0  0  0  0
    6.3500    3.2910    8.0660 N   0  0  0  0  0  0  0  0  0  0  0  0
    7.5150    4.0660    8.4880 C   0  0  0  0  0  1  0  0  0  0  0  0
    6.2880    2.5160    6.9130 C   0  0  0  0  0  0  0  0  0  0  0  0
    5.2640    1.9430    6.5440 O   0  0  0  0  0  0  0  0  0  0  0  0
    2.3980    6.6550    3.0720 H   0  0  0  0  0  0  0  0  0  0  0  0
   10.9340    6.2080    4.3920 C   0  0  0  0  0  3  0  0  0  0  0  0
   10.9060    7.7100    4.0670 C   0  0  0  0  0  2  0  0  0  0  0  0
   12.2840    8.3460    4.2420 C   0  0  0  0  0  2  0  0  0  0  0  0
   12.8530    8.0870    5.6350 C   0  0  0  0  0  2  0  0  0  0  0  0
   12.8920    6.5960    5.9570 C   0  0  0  0  0  2  0  0  0  0  0  0
   11.5180    5.9480    5.7940 C   0  0  0  0  0  2  0  0  0  0  0  0
    4.8480    7.8680    6.7630 C   0  0  0  0  0  3  0  0  0  0  0  0
    4.1400    8.2530    8.0580 C   0  0  0  0  0  1  0  0  0  0  0  0
    6.3300    7.6100    7.0160 C   0  0  0  0  0  1  0  0  0  0  0  0
   12.9260   -1.1930    4.4610 C   0  0  0  0  0  1  0  0  0  0  0  0
   12.7630   -0.1850    5.4510 O   0  0  0  0  0  0  0  0  0  0  0  0
  1 45  1  0  0  0  0
  1  6  1  0  0  0  0
  2  1  2  0  0  0  0
  3  2  1  0  0  0  0
  3  4  2  0  0  0  0
  4  5  1  0  0  0  0
  5  6  2  0  0  0  0
  5  7  1  0  0  0  0
  8  7  2  0  0  0  0
  8 32  1  0  0  0  0
  9  8  1  0  0  0  0
 10 11  1  0  0  0  0
 10  9  1  0  0  0  0
 11  4  1  0  0  0  0
 12 11  2  0  0  0  0
 12 35  1  0  0  0  0
 13 18  1  0  0  0  0
 13 12  1  0  0  0  0
 14 13  2  0  0  0  0
 15 16  2  0  0  0  0
 15 14  1  0  0  0  0
 16 17  1  0  0  0  0
 17 18  2  0  0  0  0
 18 10  1  0  0  0  0
 19 16  1  0  0  0  0
 19 21  1  0  0  0  0
 20 19  2  0  0  0  0
 21 22  1  0  0  0  0
 22 24  2  0  0  0  0
 22 25  1  0  0  0  0
 23 22  2  0  0  0  0
 25 26  1  0  0  0  0
 25 41  1  0  0  0  0
 26 27  1  0  0  0  0
 27 28  1  0  0  0  0
 29 28  1  0  0  0  0
 30 31  1  0  0  0  0
 30 29  1  0  0  0  0
 32 30  1  0  0  0  0
 33 32  2  0  0  0  0
 34 21  1  0  0  0  0
 35 40  1  0  0  0  0
 36 37  1  0  0  0  0
 36 35  1  0  0  0  0
 37 38  1  0  0  0  0
 38 39  1  0  0  0  0
 40 39  1  0  0  0  0
 41 43  1  0  0  0  0
 41 42  1  0  0  0  0
 44 45  1  0  0  0  0
M  END
>  <minimizedAffinity>
-4.4602046

$$$$
