
 OpenBabel09092211523D

 45 50  0  0  0  0  0  0  0  0999 V2000
   12.4310    0.1410    4.0750 C   0  0  0  0  0  0  0  0  0  0  0  0
   12.3710    1.2230    3.2040 C   0  0  0  0  0  3  0  0  0  0  0  0
   11.3090    2.1300    3.2880 C   0  0  0  0  0  3  0  0  0  0  0  0
   10.2910    1.9860    4.2460 C   0  0  0  0  0  0  0  0  0  0  0  0
   10.3300    0.8600    5.1010 C   0  0  0  0  0  0  0  0  0  0  0  0
   11.4120   -0.0340    5.0160 C   0  0  0  0  0  3  0  0  0  0  0  0
    9.3070    0.5630    6.1240 C   0  0  0  0  0  3  0  0  0  0  0  0
    7.9970    0.8050    5.9370 C   0  0  0  0  0  0  0  0  0  0  0  0
    7.4200    1.2830    4.6370 C   0  0  0  0  0  2  0  0  0  0  0  0
    7.8710    2.6440    4.3720 N   0  0  0  0  0  0  0  0  0  0  0  0
    9.2070    2.9970    4.2780 C   0  0  0  0  0  0  0  0  0  0  0  0
    9.2510    4.3950    4.2600 C   0  0  0  0  0  0  0  0  0  0  0  0
    7.8890    4.8630    4.1910 C   0  0  0  0  0  0  0  0  0  0  0  0
    7.2860    6.1400    4.0880 C   0  0  0  0  0  3  0  0  0  0  0  0
    5.8900    6.2660    4.0660 C   0  0  0  0  0  3  0  0  0  0  0  0
    5.0840    5.1350    4.1640 C   0  0  0  0  0  0  0  0  0  0  0  0
    5.6540    3.8570    4.2420 C   0  0  0  0  0  3  0  0  0  0  0  0
    7.0550    3.7470    4.2620 C   0  0  0  0  0  0  0  0  0  0  0  0
    3.6130    5.2840    4.1110 C   0  0  0  0  0  0  0  0  0  0  0  0
    3.0780    6.0600    3.3350 O   0  0  0  0  0  0  0  0  0  0  0  0
    2.8480    4.3810    4.8800 N   0  0  0  0  0  0  0  0  0  0  0  0
    2.6260    4.6440    6.5230 S   0  0  0  0  0  0  0  0  0  0  0  0
    2.2360    6.0250    6.6730 O   0  0  0  0  0  0  0  0  0  0  0  0
    1.7680    3.5760    6.9780 O   0  0  0  0  0  0  0  0  0  0  0  0
    4.1570    4.4200    7.1690 N   0  0  0  0  0  0  0  0  0  0  0  0
    4.6650    3.0390    7.3360 C   0  0  0  0  0  2  0  0  0  0  0  0
    4.1710    2.3440    8.6060 C   0  0  0  0  0  2  0  0  0  0  0  0
    5.2540    2.0440    9.6510 C   0  0  0  0  0  2  0  0  0  0  0  0
    6.2080    0.8890    9.3050 C   0  0  0  0  0  2  0  0  0  0  0  0
    7.1640    1.1850    8.2380 N   0  0  0  0  0  0  0  0  0  0  0  0
    8.2610    2.0920    8.5690 C   0  0  0  0  0  1  0  0  0  0  0  0
    7.0000    0.5530    7.0100 C   0  0  0  0  0  0  0  0  0  0  0  0
    6.0200   -0.1380    6.7370 O   0  0  0  0  0  0  0  0  0  0  0  0
    1.8940    4.3930    4.5210 H   0  0  0  0  0  0  0  0  0  0  0  0
   10.4980    5.2540    4.3200 C   0  0  0  0  0  3  0  0  0  0  0  0
   10.2550    6.6910    3.8300 C   0  0  0  0  0  2  0  0  0  0  0  0
   11.5350    7.5220    3.8760 C   0  0  0  0  0  2  0  0  0  0  0  0
   12.1690    7.5060    5.2640 C   0  0  0  0  0  2  0  0  0  0  0  0
   12.4220    6.0810    5.7500 C   0  0  0  0  0  2  0  0  0  0  0  0
   11.1470    5.2400    5.7170 C   0  0  0  0  0  2  0  0  0  0  0  0
    4.7890    5.5610    7.8890 C   0  0  0  0  0  3  0  0  0  0  0  0
    4.2810    5.6690    9.3240 C   0  0  0  0  0  1  0  0  0  0  0  0
    6.3140    5.5250    7.8600 C   0  0  0  0  0  1  0  0  0  0  0  0
   13.3470   -1.7640    5.1640 C   0  0  0  0  0  1  0  0  0  0  0  0
   13.4090   -0.8130    4.1090 O   0  0  0  0  0  0  0  0  0  0  0  0
  1 45  1  0  0  0  0
  1  6  1  0  0  0  0
  2  3  1  0  0  0  0
  2  1  2  0  0  0  0
  3  4  2  0  0  0  0
  4 11  1  0  0  0  0
  4  5  1  0  0  0  0
  5  7  1  0  0  0  0
  6  5  2  0  0  0  0
  8  7  2  0  0  0  0
  8 32  1  0  0  0  0
  9  8  1  0  0  0  0
 10  9  1  0  0  0  0
 11 10  1  0  0  0  0
 12 11  2  0  0  0  0
 12 35  1  0  0  0  0
 13 12  1  0  0  0  0
 13 18  1  0  0  0  0
 14 13  2  0  0  0  0
 15 14  1  0  0  0  0
 15 16  2  0  0  0  0
 16 17  1  0  0  0  0
 17 18  2  0  0  0  0
 18 10  1  0  0  0  0
 19 16  1  0  0  0  0
 19 21  1  0  0  0  0
 20 19  2  0  0  0  0
 21 22  1  0  0  0  0
 22 23  2  0  0  0  0
 22 24  2  0  0  0  0
 22 25  1  0  0  0  0
 25 26  1  0  0  0  0
 25 41  1  0  0  0  0
 26 27  1  0  0  0  0
 27 28  1  0  0  0  0
 29 28  1  0  0  0  0
 30 31  1  0  0  0  0
 30 29  1  0  0  0  0
 32 30  1  0  0  0  0
 33 32  2  0  0  0  0
 34 21  1  0  0  0  0
 35 40  1  0  0  0  0
 36 37  1  0  0  0  0
 36 35  1  0  0  0  0
 37 38  1  0  0  0  0
 38 39  1  0  0  0  0
 40 39  1  0  0  0  0
 41 42  1  0  0  0  0
 43 41  1  0  0  0  0
 45 44  1  0  0  0  0
M  END
>  <minimizedAffinity>
-4.91399717

$$$$
