
 OpenBabel09092211523D

 45 50  0  0  0  0  0  0  0  0999 V2000
    7.5630   -1.1980    2.8940 C   0  0  0  0  0  0  0  0  0  0  0  0
    8.9250   -1.1570    2.6220 C   0  0  0  0  0  3  0  0  0  0  0  0
    9.7200   -0.1500    3.1800 C   0  0  0  0  0  3  0  0  0  0  0  0
    9.1780    0.8300    4.0290 C   0  0  0  0  0  0  0  0  0  0  0  0
    7.7840    0.8130    4.2690 C   0  0  0  0  0  0  0  0  0  0  0  0
    7.0010   -0.2150    3.7140 C   0  0  0  0  0  3  0  0  0  0  0  0
    7.0770    1.8030    5.1060 C   0  0  0  0  0  3  0  0  0  0  0  0
    7.4140    3.1050    5.1350 C   0  0  0  0  0  0  0  0  0  0  0  0
    8.4520    3.7130    4.2400 C   0  0  0  0  0  2  0  0  0  0  0  0
    9.7690    3.2020    4.6000 N   0  0  0  0  0  0  0  0  0  0  0  0
   10.0900    1.8550    4.5910 C   0  0  0  0  0  0  0  0  0  0  0  0
   11.3370    1.7370    5.2130 C   0  0  0  0  0  0  0  0  0  0  0  0
   11.8210    3.0730    5.4550 C   0  0  0  0  0  0  0  0  0  0  0  0
   13.0170    3.6110    5.9880 C   0  0  0  0  0  3  0  0  0  0  0  0
   13.1770    4.9980    6.1170 C   0  0  0  0  0  3  0  0  0  0  0  0
   12.1500    5.8580    5.7370 C   0  0  0  0  0  0  0  0  0  0  0  0
   10.9660    5.3550    5.1840 C   0  0  0  0  0  3  0  0  0  0  0  0
   10.8200    3.9620    5.0610 C   0  0  0  0  0  0  0  0  0  0  0  0
   12.3470    7.3200    5.8540 C   0  0  0  0  0  0  0  0  0  0  0  0
   13.4070    7.8470    5.5560 O   0  0  0  0  0  0  0  0  0  0  0  0
   11.2120    8.0970    6.1710 N   0  0  0  0  0  0  0  0  0  0  0  0
   10.6940    8.2300    7.7620 S   0  0  0  0  0  0  0  0  0  0  0  0
   11.8610    8.5390    8.5530 O   0  0  0  0  0  0  0  0  0  0  0  0
    9.5600    9.1230    7.7310 O   0  0  0  0  0  0  0  0  0  0  0  0
   10.1560    6.6870    8.1330 N   0  0  0  0  0  0  0  0  0  0  0  0
    8.8400    6.2460    7.6150 C   0  0  0  0  0  2  0  0  0  0  0  0
    7.6530    6.7200    8.4540 C   0  0  0  0  0  2  0  0  0  0  0  0
    6.8760    5.6080    9.1720 C   0  0  0  0  0  2  0  0  0  0  0  0
    5.9840    4.7340    8.2750 C   0  0  0  0  0  2  0  0  0  0  0  0
    6.7130    3.8130    7.4030 N   0  0  0  0  0  0  0  0  0  0  0  0
    7.3360    2.6550    8.0410 C   0  0  0  0  0  1  0  0  0  0  0  0
    6.7230    4.0650    6.0350 C   0  0  0  0  0  0  0  0  0  0  0  0
    6.2610    5.0920    5.5400 O   0  0  0  0  0  0  0  0  0  0  0  0
   11.4140    9.0640    5.9200 H   0  0  0  0  0  0  0  0  0  0  0  0
   12.0380    0.4440    5.5800 C   0  0  0  0  0  3  0  0  0  0  0  0
   11.1320   -0.5230    6.3580 C   0  0  0  0  0  2  0  0  0  0  0  0
   11.8750   -1.8030    6.7380 C   0  0  0  0  0  2  0  0  0  0  0  0
   12.4950   -2.4780    5.5180 C   0  0  0  0  0  2  0  0  0  0  0  0
   13.4040   -1.5240    4.7490 C   0  0  0  0  0  2  0  0  0  0  0  0
   12.6720   -0.2420    4.3560 C   0  0  0  0  0  2  0  0  0  0  0  0
   10.8200    5.9620    9.2530 C   0  0  0  0  0  3  0  0  0  0  0  0
   10.2930    6.4230   10.6090 C   0  0  0  0  0  1  0  0  0  0  0  0
   10.7300    4.4440    9.1300 C   0  0  0  0  0  1  0  0  0  0  0  0
    7.0480   -2.8380    1.2510 C   0  0  0  0  0  1  0  0  0  0  0  0
    6.6740   -2.1250    2.4230 O   0  0  0  0  0  0  0  0  0  0  0  0
  1  6  1  0  0  0  0
  2  1  2  0  0  0  0
  2  3  1  0  0  0  0
  3  4  2  0  0  0  0
  4  5  1  0  0  0  0
  4 11  1  0  0  0  0
  5  7  1  0  0  0  0
  6  5  2  0  0  0  0
  7  8  2  0  0  0  0
  8 32  1  0  0  0  0
  9 10  1  0  0  0  0
  9  8  1  0  0  0  0
 10 18  1  0  0  0  0
 11 10  1  0  0  0  0
 11 12  2  0  0  0  0
 12 13  1  0  0  0  0
 12 35  1  0  0  0  0
 13 14  1  0  0  0  0
 14 15  2  0  0  0  0
 16 19  1  0  0  0  0
 16 15  1  0  0  0  0
 17 16  2  0  0  0  0
 18 17  1  0  0  0  0
 18 13  2  0  0  0  0
 19 21  1  0  0  0  0
 20 19  2  0  0  0  0
 21 22  1  0  0  0  0
 22 25  1  0  0  0  0
 22 23  2  0  0  0  0
 24 22  2  0  0  0  0
 25 41  1  0  0  0  0
 26 25  1  0  0  0  0
 26 27  1  0  0  0  0
 27 28  1  0  0  0  0
 29 28  1  0  0  0  0
 30 31  1  0  0  0  0
 30 29  1  0  0  0  0
 32 30  1  0  0  0  0
 33 32  2  0  0  0  0
 34 21  1  0  0  0  0
 35 36  1  0  0  0  0
 36 37  1  0  0  0  0
 38 37  1  0  0  0  0
 39 38  1  0  0  0  0
 40 39  1  0  0  0  0
 40 35  1  0  0  0  0
 41 42  1  0  0  0  0
 43 41  1  0  0  0  0
 44 45  1  0  0  0  0
 45  1  1  0  0  0  0
M  END
>  <minimizedAffinity>
-4.65277243

$$$$
