
 OpenBabel09092211523D

 45 50  0  0  0  0  0  0  0  0999 V2000
   11.9810    0.8870    5.1210 C   0  0  0  0  0  0  0  0  0  0  0  0
   12.2520    1.8260    4.1330 C   0  0  0  0  0  3  0  0  0  0  0  0
   11.3620    2.8810    3.9070 C   0  0  0  0  0  3  0  0  0  0  0  0
   10.1890    3.0300    4.6670 C   0  0  0  0  0  0  0  0  0  0  0  0
    9.8920    2.0480    5.6420 C   0  0  0  0  0  0  0  0  0  0  0  0
   10.8050    1.0030    5.8680 C   0  0  0  0  0  3  0  0  0  0  0  0
    8.6780    2.0580    6.4820 C   0  0  0  0  0  3  0  0  0  0  0  0
    7.4780    2.4590    6.0240 C   0  0  0  0  0  0  0  0  0  0  0  0
    7.2160    2.8200    4.5920 C   0  0  0  0  0  2  0  0  0  0  0  0
    7.9300    4.0470    4.2580 N   0  0  0  0  0  0  0  0  0  0  0  0
    9.3030    4.1830    4.3750 C   0  0  0  0  0  0  0  0  0  0  0  0
    9.5870    5.5410    4.2000 C   0  0  0  0  0  0  0  0  0  0  0  0
    8.3560    6.1880    3.8220 C   0  0  0  0  0  0  0  0  0  0  0  0
    8.0040    7.5110    3.4570 C   0  0  0  0  0  3  0  0  0  0  0  0
    6.6740    7.8350    3.1590 C   0  0  0  0  0  3  0  0  0  0  0  0
    5.6820    6.8610    3.2360 C   0  0  0  0  0  0  0  0  0  0  0  0
    6.0050    5.5390    3.5700 C   0  0  0  0  0  3  0  0  0  0  0  0
    7.3440    5.2290    3.8670 C   0  0  0  0  0  0  0  0  0  0  0  0
    4.2880    7.2150    2.8900 C   0  0  0  0  0  0  0  0  0  0  0  0
    4.0300    7.9380    1.9420 O   0  0  0  0  0  0  0  0  0  0  0  0
    3.2630    6.5570    3.6030 N   0  0  0  0  0  0  0  0  0  0  0  0
    2.8190    7.0870    5.1320 S   0  0  0  0  0  0  0  0  0  0  0  0
    2.6500    8.5170    5.0420 O   0  0  0  0  0  0  0  0  0  0  0  0
    1.7270    6.2350    5.5410 O   0  0  0  0  0  0  0  0  0  0  0  0
    4.1590    6.7390    6.0770 N   0  0  0  0  0  0  0  0  0  0  0  0
    4.3900    5.3380    6.4980 C   0  0  0  0  0  2  0  0  0  0  0  0
    3.5790    4.9170    7.7250 C   0  0  0  0  0  2  0  0  0  0  0  0
    4.4070    4.6180    8.9830 C   0  0  0  0  0  2  0  0  0  0  0  0
    5.1940    3.2980    8.9620 C   0  0  0  0  0  2  0  0  0  0  0  0
    6.3500    3.2910    8.0660 N   0  0  0  0  0  0  0  0  0  0  0  0
    7.5150    4.0660    8.4880 C   0  0  0  0  0  1  0  0  0  0  0  0
    6.2880    2.5160    6.9130 C   0  0  0  0  0  0  0  0  0  0  0  0
    5.2640    1.9430    6.5440 O   0  0  0  0  0  0  0  0  0  0  0  0
    2.3980    6.6550    3.0720 H   0  0  0  0  0  0  0  0  0  0  0  0
   10.9340    6.2080    4.3920 C   0  0  0  0  0  3  0  0  0  0  0  0
   10.9060    7.7100    4.0670 C   0  0  0  0  0  2  0  0  0  0  0  0
   12.2840    8.3460    4.2420 C   0  0  0  0  0  2  0  0  0  0  0  0
   12.8530    8.0870    5.6350 C   0  0  0  0  0  2  0  0  0  0  0  0
   12.8920    6.5960    5.9570 C   0  0  0  0  0  2  0  0  0  0  0  0
   11.5180    5.9480    5.7940 C   0  0  0  0  0  2  0  0  0  0  0  0
    4.8480    7.8680    6.7630 C   0  0  0  0  0  3  0  0  0  0  0  0
    4.1400    8.2530    8.0580 C   0  0  0  0  0  1  0  0  0  0  0  0
    6.3300    7.6100    7.0160 C   0  0  0  0  0  1  0  0  0  0  0  0
   12.9260   -1.1930    4.4610 C   0  0  0  0  0  1  0  0  0  0  0  0
   12.7630   -0.1850    5.4510 O   0  0  0  0  0  0  0  0  0  0  0  0
  1 45  1  0  0  0  0
  1  6  1  0  0  0  0
  2  1  2  0  0  0  0
  3  2  1  0  0  0  0
  3  4  2  0  0  0  0
  4  5  1  0  0  0  0
  5  6  2  0  0  0  0
  5  7  1  0  0  0  0
  8  7  2  0  0  0  0
  8 32  1  0  0  0  0
  9  8  1  0  0  0  0
 10 11  1  0  0  0  0
 10  9  1  0  0  0  0
 11  4  1  0  0  0  0
 12 11  2  0  0  0  0
 12 35  1  0  0  0  0
 13 18  1  0  0  0  0
 13 12  1  0  0  0  0
 14 13  2  0  0  0  0
 15 16  2  0  0  0  0
 15 14  1  0  0  0  0
 16 17  1  0  0  0  0
 17 18  2  0  0  0  0
 18 10  1  0  0  0  0
 19 16  1  0  0  0  0
 19 21  1  0  0  0  0
 20 19  2  0  0  0  0
 21 22  1  0  0  0  0
 22 24  2  0  0  0  0
 22 25  1  0  0  0  0
 23 22  2  0  0  0  0
 25 26  1  0  0  0  0
 25 41  1  0  0  0  0
 26 27  1  0  0  0  0
 27 28  1  0  0  0  0
 29 28  1  0  0  0  0
 30 31  1  0  0  0  0
 30 29  1  0  0  0  0
 32 30  1  0  0  0  0
 33 32  2  0  0  0  0
 34 21  1  0  0  0  0
 35 40  1  0  0  0  0
 36 37  1  0  0  0  0
 36 35  1  0  0  0  0
 37 38  1  0  0  0  0
 38 39  1  0  0  0  0
 40 39  1  0  0  0  0
 41 43  1  0  0  0  0
 41 42  1  0  0  0  0
 44 45  1  0  0  0  0
M  END
>  <minimizedAffinity>
-4.4602046

$$$$
