
 OpenBabel09092211523D

 45 50  0  0  0  0  0  0  0  0999 V2000
   10.1890    7.3080    3.6260 C   0  0  0  0  0  0  0  0  0  0  0  0
    8.9550    6.8990    3.1340 C   0  0  0  0  0  3  0  0  0  0  0  0
    8.5230    5.5840    3.3330 C   0  0  0  0  0  3  0  0  0  0  0  0
    9.3040    4.6510    4.0360 C   0  0  0  0  0  0  0  0  0  0  0  0
   10.5790    5.0560    4.4980 C   0  0  0  0  0  0  0  0  0  0  0  0
   10.9910    6.3860    4.3040 C   0  0  0  0  0  3  0  0  0  0  0  0
   11.5180    4.1710    5.2140 C   0  0  0  0  0  3  0  0  0  0  0  0
   11.6610    2.8670    4.9170 C   0  0  0  0  0  0  0  0  0  0  0  0
   10.9810    2.2020    3.7580 C   0  0  0  0  0  2  0  0  0  0  0  0
    9.5430    2.1520    3.9970 N   0  0  0  0  0  0  0  0  0  0  0  0
    8.7700    3.2800    4.2170 C   0  0  0  0  0  0  0  0  0  0  0  0
    7.5150    2.8280    4.6390 C   0  0  0  0  0  0  0  0  0  0  0  0
    7.5150    1.3930    4.5150 C   0  0  0  0  0  0  0  0  0  0  0  0
    6.5460    0.3810    4.7220 C   0  0  0  0  0  3  0  0  0  0  0  0
    6.8750   -0.9680    4.5320 C   0  0  0  0  0  3  0  0  0  0  0  0
    8.1660   -1.3260    4.1540 C   0  0  0  0  0  0  0  0  0  0  0  0
    9.1380   -0.3450    3.9180 C   0  0  0  0  0  3  0  0  0  0  0  0
    8.7930    1.0040    4.1120 C   0  0  0  0  0  0  0  0  0  0  0  0
    8.4880   -2.7520    3.9310 C   0  0  0  0  0  0  0  0  0  0  0  0
    7.7100   -3.5010    3.3620 O   0  0  0  0  0  0  0  0  0  0  0  0
    9.7940   -3.1750    4.2600 N   0  0  0  0  0  0  0  0  0  0  0  0
   10.1950   -3.5290    5.8500 S   0  0  0  0  0  0  0  0  0  0  0  0
    9.1510   -4.3860    6.3590 O   0  0  0  0  0  0  0  0  0  0  0  0
   11.5690   -3.9700    5.8200 O   0  0  0  0  0  0  0  0  0  0  0  0
   10.1220   -2.0400    6.6180 N   0  0  0  0  0  0  0  0  0  0  0  0
   11.2360   -1.0830    6.4230 C   0  0  0  0  0  2  0  0  0  0  0  0
   12.4420   -1.3430    7.3270 C   0  0  0  0  0  2  0  0  0  0  0  0
   12.7160   -0.2580    8.3780 C   0  0  0  0  0  2  0  0  0  0  0  0
   13.3120    1.0530    7.8390 C   0  0  0  0  0  2  0  0  0  0  0  0
   12.3790    1.8780    7.0710 N   0  0  0  0  0  0  0  0  0  0  0  0
   11.3390    2.5730    7.8260 C   0  0  0  0  0  1  0  0  0  0  0  0
   12.5700    1.9880    5.6980 C   0  0  0  0  0  0  0  0  0  0  0  0
   13.4030    1.3240    5.0810 O   0  0  0  0  0  0  0  0  0  0  0  0
    9.9670   -4.0590    3.7830 H   0  0  0  0  0  0  0  0  0  0  0  0
    6.3760    3.6900    5.1470 C   0  0  0  0  0  3  0  0  0  0  0  0
    5.1660    3.6970    4.2000 C   0  0  0  0  0  2  0  0  0  0  0  0
    4.0480    4.5960    4.7250 C   0  0  0  0  0  2  0  0  0  0  0  0
    3.6420    4.2170    6.1470 C   0  0  0  0  0  2  0  0  0  0  0  0
    4.8390    4.2200    7.0930 C   0  0  0  0  0  2  0  0  0  0  0  0
    5.9620    3.3180    6.5840 C   0  0  0  0  0  2  0  0  0  0  0  0
    9.1570   -1.8740    7.7410 C   0  0  0  0  0  3  0  0  0  0  0  0
    9.7200   -2.4220    9.0490 C   0  0  0  0  0  1  0  0  0  0  0  0
    8.6780   -0.4370    7.9210 C   0  0  0  0  0  1  0  0  0  0  0  0
   11.9110    8.8230    4.2530 C   0  0  0  0  0  1  0  0  0  0  0  0
   10.7290    8.5590    3.5090 O   0  0  0  0  0  0  0  0  0  0  0  0
  1  6  1  0  0  0  0
  2  3  1  0  0  0  0
  2  1  2  0  0  0  0
  3  4  2  0  0  0  0
  4 11  1  0  0  0  0
  4  5  1  0  0  0  0
  5  7  1  0  0  0  0
  6  5  2  0  0  0  0
  8  7  2  0  0  0  0
  8 32  1  0  0  0  0
  9 10  1  0  0  0  0
  9  8  1  0  0  0  0
 10 18  1  0  0  0  0
 10 11  1  0  0  0  0
 11 12  2  0  0  0  0
 12 35  1  0  0  0  0
 13 12  1  0  0  0  0
 13 14  1  0  0  0  0
 15 14  2  0  0  0  0
 16 15  1  0  0  0  0
 17 18  1  0  0  0  0
 17 16  2  0  0  0  0
 18 13  2  0  0  0  0
 19 16  1  0  0  0  0
 19 21  1  0  0  0  0
 20 19  2  0  0  0  0
 21 22  1  0  0  0  0
 22 23  2  0  0  0  0
 22 25  1  0  0  0  0
 24 22  2  0  0  0  0
 25 41  1  0  0  0  0
 26 25  1  0  0  0  0
 26 27  1  0  0  0  0
 27 28  1  0  0  0  0
 29 28  1  0  0  0  0
 30 31  1  0  0  0  0
 30 29  1  0  0  0  0
 32 30  1  0  0  0  0
 33 32  2  0  0  0  0
 34 21  1  0  0  0  0
 35 40  1  0  0  0  0
 36 37  1  0  0  0  0
 36 35  1  0  0  0  0
 37 38  1  0  0  0  0
 38 39  1  0  0  0  0
 40 39  1  0  0  0  0
 41 43  1  0  0  0  0
 41 42  1  0  0  0  0
 45  1  1  0  0  0  0
 45 44  1  0  0  0  0
M  END
>  <minimizedAffinity>
-5.67284012

$$$$
