REMARK  Name = 
REMARK  9 active torsions:
REMARK  status: ('A' for Active; 'I' for Inactive)
REMARK    1  A    between atoms: C_1  and  O_2
REMARK    2  A    between atoms: O_2  and  C_3
REMARK    3  A    between atoms: C_5  and  C_6
REMARK    4  A    between atoms: C_6  and  S_7
REMARK    5  A    between atoms: S_7  and  C_8
REMARK    6  A    between atoms: C_10  and  C_11
REMARK    7  A    between atoms: C_18  and  C_19
REMARK    8  A    between atoms: C_25  and  O_26
REMARK    9  A    between atoms: O_26  and  C_27
REMARK                            x       y       z     vdW  Elec       q    Type
REMARK                         _______ _______ _______ _____ _____    ______ ____
ROOT
ATOM      1  C   UNL     1       0.660  -5.231  -4.366  0.00  0.00    +0.170 A 
ATOM      2  N   UNL     1       1.848  -4.741  -4.335  0.00  0.00    -0.222 NA
ATOM      3  C   UNL     1       2.895  -5.608  -4.110  0.00  0.00    +0.096 A 
ATOM      4  C   UNL     1       2.758  -6.941  -3.967  0.00  0.00    +0.142 A 
ATOM      5  C   UNL     1       1.381  -7.476  -4.062  0.00  0.00    +0.270 A 
ATOM      6  O   UNL     1       1.126  -8.673  -3.987  0.00  0.00    -0.266 OA
ATOM      7  N   UNL     1       0.392  -6.553  -4.233  0.00  0.00    -0.301 N 
ATOM      8  H   UNL     1      -0.563  -6.876  -4.277  0.00  0.00    +0.171 HD
ENDROOT
BRANCH   3   9
ATOM      9  C   UNL     1       4.211  -4.946  -3.955  0.00  0.00    +0.002 A 
ATOM     10  C   UNL     1       4.415  -4.086  -2.864  0.00  0.00    +0.011 A 
ATOM     11  C   UNL     1       5.635  -3.428  -2.698  0.00  0.00    +0.016 A 
ATOM     12  C   UNL     1       6.653  -3.618  -3.629  0.00  0.00    +0.018 A 
ATOM     13 BR   UNL     1       8.297  -2.711  -3.414  0.00  0.00    -0.050 Br
ATOM     14  C   UNL     1       6.463  -4.462  -4.722  0.00  0.00    +0.016 A 
ATOM     15  C   UNL     1       5.242  -5.123  -4.888  0.00  0.00    +0.011 A 
ENDBRANCH   3   9
BRANCH   4  16
ATOM     16  C   UNL     1       3.825  -7.838  -3.701  0.00  0.00    +0.107 C 
ATOM     17  N   UNL     1       4.718  -8.550  -3.493  0.00  0.00    -0.191 NA
ENDBRANCH   4  16
BRANCH   1  18
ATOM     18  S   UNL     1      -0.771  -4.280  -4.571  0.00  0.00    -0.083 S 
BRANCH  18  19
ATOM     19  C   UNL     1      -0.088  -2.709  -5.171  0.00  0.00    +0.112 C 
BRANCH  19  22
ATOM     20  C   UNL     1       0.725  -0.704  -2.011  0.00  0.00    +0.124 A 
ATOM     21  C   UNL     1       0.032  -1.476  -2.950  0.00  0.00    +0.050 A 
ATOM     22  C   UNL     1       0.645  -1.887  -4.140  0.00  0.00    -0.030 A 
ATOM     23  C   UNL     1       1.965  -1.480  -4.381  0.00  0.00    +0.050 A 
ATOM     24  C   UNL     1       2.665  -0.699  -3.457  0.00  0.00    +0.124 A 
ATOM     25  C   UNL     1       2.043  -0.314  -2.269  0.00  0.00    +0.091 A 
BRANCH  20  27
ATOM     26  C   UNL     1       0.668   0.338   0.129  0.00  0.00    +0.277 C 
ATOM     27  O   UNL     1       0.001  -0.394  -0.891  0.00  0.00    -0.495 OA
ENDBRANCH  20  27
BRANCH  24  28
ATOM     28  O   UNL     1       3.941  -0.385  -3.839  0.00  0.00    -0.495 OA
ATOM     29  C   UNL     1       4.719   0.392  -2.939  0.00  0.00    +0.277 C 
ENDBRANCH  24  28
ENDBRANCH  19  22
ENDBRANCH  18  19
ENDBRANCH   1  18
TORSDOF 7
