
 OpenBabel09122222393D

 29 31  0  0  0  0  0  0  0  0999 V2000
    5.2240   -6.9080    1.1640 C   0  0  0  0  0  0  0  0  0  0  0  0
    4.1390   -7.4290    1.6160 N   0  0  0  0  0  0  0  0  0  0  0  0
    4.2470   -8.5470    2.4140 C   0  0  0  0  0  0  0  0  0  0  0  0
    5.4160   -9.1010    2.7880 C   0  0  0  0  0  0  0  0  0  0  0  0
    6.6460   -8.4430    2.2920 C   0  0  0  0  0  0  0  0  0  0  0  0
    7.7720   -8.8260    2.5910 O   0  0  0  0  0  0  0  0  0  0  0  0
    6.4600   -7.3750    1.4660 N   0  0  0  0  0  0  0  0  0  0  0  0
    7.2740   -6.9140    1.0860 H   0  0  0  0  0  0  0  0  0  0  0  0
    2.9490   -9.1610    2.7790 C   0  0  0  0  0  0  0  0  0  0  0  0
    2.2100   -8.6080    3.8380 C   0  0  0  0  0  3  0  0  0  0  0  0
    0.9940   -9.1740    4.2240 C   0  0  0  0  0  3  0  0  0  0  0  0
    0.5160  -10.3020    3.5620 C   0  0  0  0  0  0  0  0  0  0  0  0
   -1.1210  -11.0780    4.0990 Br  0  0  0  0  0  0  0  0  0  0  0  0
    1.2420  -10.8670    2.5150 C   0  0  0  0  0  3  0  0  0  0  0  0
    2.4600  -10.3000    2.1250 C   0  0  0  0  0  3  0  0  0  0  0  0
    5.5380  -10.2720    3.5810 C   0  0  0  0  0  0  0  0  0  0  0  0
    5.6060  -11.2330    4.2290 N   0  0  0  0  0  0  0  0  0  0  0  0
    5.2700   -5.5460    0.0970 S   0  0  0  0  0  0  0  0  0  0  0  0
    6.9120   -5.7210   -0.6550 C   0  0  0  0  0  2  0  0  0  0  0  0
    9.9780   -3.4350   -0.4390 C   0  0  0  0  0  0  0  0  0  0  0  0
    9.0020   -4.3010   -0.9460 C   0  0  0  0  0  3  0  0  0  0  0  0
    7.9670   -4.7770   -0.1320 C   0  0  0  0  0  0  0  0  0  0  0  0
    7.9480   -4.3870    1.2150 C   0  0  0  0  0  3  0  0  0  0  0  0
    8.9230   -3.5320    1.7370 C   0  0  0  0  0  0  0  0  0  0  0  0
    9.9370   -3.0540    0.9060 C   0  0  0  0  0  3  0  0  0  0  0  0
   12.1190   -2.4810   -0.8520 C   0  0  0  0  0  1  0  0  0  0  0  0
   10.9140   -3.0420   -1.3560 O   0  0  0  0  0  0  0  0  0  0  0  0
    8.7660   -3.2470    3.0660 O   0  0  0  0  0  0  0  0  0  0  0  0
    9.9230   -2.8460    3.7880 C   0  0  0  0  0  1  0  0  0  0  0  0
  1  7  1  0  0  0  0
  1  2  2  0  0  0  0
  2  3  1  0  0  0  0
  3  9  1  0  0  0  0
  3  4  2  0  0  0  0
  4 16  1  0  0  0  0
  5  6  2  0  0  0  0
  5  4  1  0  0  0  0
  7  5  1  0  0  0  0
  8  7  1  0  0  0  0
  9 10  1  0  0  0  0
 10 11  2  0  0  0  0
 12 13  1  0  0  0  0
 12 11  1  0  0  0  0
 14 12  2  0  0  0  0
 15 14  1  0  0  0  0
 15  9  2  0  0  0  0
 16 17  3  0  0  0  0
 18  1  1  0  0  0  0
 19 22  1  0  0  0  0
 19 18  1  0  0  0  0
 20 25  1  0  0  0  0
 21 20  2  0  0  0  0
 21 22  1  0  0  0  0
 22 23  2  0  0  0  0
 23 24  1  0  0  0  0
 24 28  1  0  0  0  0
 25 24  2  0  0  0  0
 27 26  1  0  0  0  0
 27 20  1  0  0  0  0
 28 29  1  0  0  0  0
M  END
>  <minimizedAffinity>
-6.28147078

$$$$
