
 OpenBabel09122222393D

 29 31  0  0  0  0  0  0  0  0999 V2000
    8.2510   -4.5280    0.8430 C   0  0  0  0  0  0  0  0  0  0  0  0
    9.0070   -3.7110    0.2010 N   0  0  0  0  0  0  0  0  0  0  0  0
    9.3850   -2.5490    0.8390 C   0  0  0  0  0  0  0  0  0  0  0  0
    9.0520   -2.2380    2.1070 C   0  0  0  0  0  0  0  0  0  0  0  0
    8.2250   -3.2290    2.8330 C   0  0  0  0  0  0  0  0  0  0  0  0
    7.8870   -3.0830    4.0030 O   0  0  0  0  0  0  0  0  0  0  0  0
    7.8470   -4.3280    2.1200 N   0  0  0  0  0  0  0  0  0  0  0  0
    7.2610   -5.0140    2.5730 H   0  0  0  0  0  0  0  0  0  0  0  0
   10.1410   -1.6040   -0.0150 C   0  0  0  0  0  0  0  0  0  0  0  0
    9.7800   -0.2470   -0.0110 C   0  0  0  0  0  3  0  0  0  0  0  0
   10.4550    0.6690   -0.8190 C   0  0  0  0  0  3  0  0  0  0  0  0
   11.4870    0.2310   -1.6450 C   0  0  0  0  0  0  0  0  0  0  0  0
   12.3870    1.4690   -2.7530 Br  0  0  0  0  0  0  0  0  0  0  0  0
   11.8520   -1.1140   -1.6660 C   0  0  0  0  0  3  0  0  0  0  0  0
   11.1770   -2.0320   -0.8550 C   0  0  0  0  0  3  0  0  0  0  0  0
    9.4070   -1.0300    2.7620 C   0  0  0  0  0  0  0  0  0  0  0  0
    9.7000   -0.0580    3.3240 N   0  0  0  0  0  0  0  0  0  0  0  0
    7.6310   -5.9980    0.1720 S   0  0  0  0  0  0  0  0  0  0  0  0
    7.8380   -7.1530    1.5560 C   0  0  0  0  0  2  0  0  0  0  0  0
    5.5560   -9.8170    3.0930 C   0  0  0  0  0  0  0  0  0  0  0  0
    6.6860   -9.0410    2.8100 C   0  0  0  0  0  3  0  0  0  0  0  0
    6.6290   -7.9930    1.8840 C   0  0  0  0  0  0  0  0  0  0  0  0
    5.4150   -7.7570    1.2230 C   0  0  0  0  0  3  0  0  0  0  0  0
    4.2810   -8.5310    1.4870 C   0  0  0  0  0  0  0  0  0  0  0  0
    4.3530   -9.5600    2.4260 C   0  0  0  0  0  3  0  0  0  0  0  0
    5.2930  -12.0980    3.7200 C   0  0  0  0  0  1  0  0  0  0  0  0
    5.7610  -10.7930    4.0310 O   0  0  0  0  0  0  0  0  0  0  0  0
    3.1770   -8.1760    0.7610 O   0  0  0  0  0  0  0  0  0  0  0  0
    2.2440   -9.2020    0.4490 C   0  0  0  0  0  1  0  0  0  0  0  0
  1  7  1  0  0  0  0
  2  3  1  0  0  0  0
  2  1  2  0  0  0  0
  3  4  2  0  0  0  0
  4 16  1  0  0  0  0
  4  5  1  0  0  0  0
  5  6  2  0  0  0  0
  7  8  1  0  0  0  0
  7  5  1  0  0  0  0
  9 10  1  0  0  0  0
  9  3  1  0  0  0  0
 11 10  2  0  0  0  0
 12 11  1  0  0  0  0
 13 12  1  0  0  0  0
 14 12  2  0  0  0  0
 14 15  1  0  0  0  0
 15  9  2  0  0  0  0
 16 17  3  0  0  0  0
 18  1  1  0  0  0  0
 18 19  1  0  0  0  0
 19 22  1  0  0  0  0
 20 27  1  0  0  0  0
 21 20  1  0  0  0  0
 22 21  2  0  0  0  0
 23 24  2  0  0  0  0
 23 22  1  0  0  0  0
 24 25  1  0  0  0  0
 25 20  2  0  0  0  0
 26 27  1  0  0  0  0
 28 24  1  0  0  0  0
 29 28  1  0  0  0  0
M  END
>  <minimizedAffinity>
-6.42410326

$$$$
