
 OpenBabel09122222393D

 29 31  0  0  0  0  0  0  0  0999 V2000
    5.2450   -6.9420    1.0550 C   0  0  0  0  0  0  0  0  0  0  0  0
    4.1700   -7.4510    1.5430 N   0  0  0  0  0  0  0  0  0  0  0  0
    4.2960   -8.5500    2.3650 C   0  0  0  0  0  0  0  0  0  0  0  0
    5.4740   -9.0960    2.7260 C   0  0  0  0  0  0  0  0  0  0  0  0
    6.6920   -8.4500    2.1880 C   0  0  0  0  0  0  0  0  0  0  0  0
    7.8250   -8.8250    2.4700 O   0  0  0  0  0  0  0  0  0  0  0  0
    6.4870   -7.4010    1.3400 N   0  0  0  0  0  0  0  0  0  0  0  0
    7.2930   -6.9500    0.9320 H   0  0  0  0  0  0  0  0  0  0  0  0
    3.0070   -9.1550    2.7740 C   0  0  0  0  0  0  0  0  0  0  0  0
    2.2680   -8.5490    3.8020 C   0  0  0  0  0  3  0  0  0  0  0  0
    1.0600   -9.1030    4.2290 C   0  0  0  0  0  3  0  0  0  0  0  0
    0.5910  -10.2730    3.6370 C   0  0  0  0  0  0  0  0  0  0  0  0
   -1.0350  -11.0340    4.2290 Br  0  0  0  0  0  0  0  0  0  0  0  0
    1.3180  -10.8920    2.6200 C   0  0  0  0  0  3  0  0  0  0  0  0
    2.5270  -10.3360    2.1910 C   0  0  0  0  0  3  0  0  0  0  0  0
    5.6130  -10.2470    3.5440 C   0  0  0  0  0  0  0  0  0  0  0  0
    5.6980  -11.1850    4.2230 N   0  0  0  0  0  0  0  0  0  0  0  0
    5.2660   -5.6050   -0.0440 S   0  0  0  0  0  0  0  0  0  0  0  0
    6.9720   -5.6620   -0.6620 C   0  0  0  0  0  2  0  0  0  0  0  0
    8.7190   -3.5750    2.0320 C   0  0  0  0  0  0  0  0  0  0  0  0
    7.8130   -4.4340    1.4000 C   0  0  0  0  0  3  0  0  0  0  0  0
    7.9440   -4.7480    0.0420 C   0  0  0  0  0  0  0  0  0  0  0  0
    8.9930   -4.1570   -0.6770 C   0  0  0  0  0  3  0  0  0  0  0  0
    9.8980   -3.2880   -0.0610 C   0  0  0  0  0  0  0  0  0  0  0  0
    9.7610   -3.0000    1.2970 C   0  0  0  0  0  3  0  0  0  0  0  0
    8.9300   -2.1550    3.9320 C   0  0  0  0  0  1  0  0  0  0  0  0
    8.4720   -3.3760    3.3640 O   0  0  0  0  0  0  0  0  0  0  0  0
   10.8610   -2.7940   -0.8980 O   0  0  0  0  0  0  0  0  0  0  0  0
   12.1940   -3.2460   -0.6970 C   0  0  0  0  0  1  0  0  0  0  0  0
  1  7  1  0  0  0  0
  1  2  2  0  0  0  0
  2  3  1  0  0  0  0
  3  4  2  0  0  0  0
  3  9  1  0  0  0  0
  4 16  1  0  0  0  0
  5  6  2  0  0  0  0
  5  4  1  0  0  0  0
  7  5  1  0  0  0  0
  8  7  1  0  0  0  0
  9 10  1  0  0  0  0
 10 11  2  0  0  0  0
 12 13  1  0  0  0  0
 12 11  1  0  0  0  0
 14 12  2  0  0  0  0
 15 14  1  0  0  0  0
 15  9  2  0  0  0  0
 16 17  3  0  0  0  0
 18  1  1  0  0  0  0
 19 18  1  0  0  0  0
 19 22  1  0  0  0  0
 20 27  1  0  0  0  0
 21 20  1  0  0  0  0
 22 21  2  0  0  0  0
 23 24  2  0  0  0  0
 23 22  1  0  0  0  0
 24 25  1  0  0  0  0
 25 20  2  0  0  0  0
 27 26  1  0  0  0  0
 28 29  1  0  0  0  0
 28 24  1  0  0  0  0
M  END
>  <minimizedAffinity>
-6.31846476

$$$$
