
 OpenBabel09122222393D

 29 31  0  0  0  0  0  0  0  0999 V2000
    6.9370   -5.5210    1.2150 C   0  0  0  0  0  0  0  0  0  0  0  0
    6.4150   -6.6940    1.1530 N   0  0  0  0  0  0  0  0  0  0  0  0
    5.3120   -6.9490    1.9380 C   0  0  0  0  0  0  0  0  0  0  0  0
    4.7170   -6.0350    2.7300 C   0  0  0  0  0  0  0  0  0  0  0  0
    5.3130   -4.6800    2.7350 C   0  0  0  0  0  0  0  0  0  0  0  0
    4.8450   -3.7500    3.3820 O   0  0  0  0  0  0  0  0  0  0  0  0
    6.4340   -4.5170    1.9740 N   0  0  0  0  0  0  0  0  0  0  0  0
    6.8840   -3.6140    1.9710 H   0  0  0  0  0  0  0  0  0  0  0  0
    4.8570   -8.3590    1.9090 C   0  0  0  0  0  0  0  0  0  0  0  0
    3.8670   -8.7350    0.9870 C   0  0  0  0  0  3  0  0  0  0  0  0
    3.3990  -10.0490    0.9460 C   0  0  0  0  0  3  0  0  0  0  0  0
    3.9100  -10.9910    1.8350 C   0  0  0  0  0  0  0  0  0  0  0  0
    3.2600  -12.7650    1.7930 Br  0  0  0  0  0  0  0  0  0  0  0  0
    4.8860  -10.6310    2.7630 C   0  0  0  0  0  3  0  0  0  0  0  0
    5.3580   -9.3150    2.8030 C   0  0  0  0  0  3  0  0  0  0  0  0
    3.6020   -6.2960    3.5670 C   0  0  0  0  0  0  0  0  0  0  0  0
    2.6760   -6.5250    4.2290 N   0  0  0  0  0  0  0  0  0  0  0  0
    8.3600   -5.0500    0.3500 S   0  0  0  0  0  0  0  0  0  0  0  0
    9.1060   -3.8510    1.4900 C   0  0  0  0  0  2  0  0  0  0  0  0
    9.4020   -0.0800    0.8910 C   0  0  0  0  0  0  0  0  0  0  0  0
    9.0730   -1.3080    1.4760 C   0  0  0  0  0  3  0  0  0  0  0  0
    9.4610   -2.5170    0.8830 C   0  0  0  0  0  0  0  0  0  0  0  0
   10.1640   -2.4650   -0.3290 C   0  0  0  0  0  3  0  0  0  0  0  0
   10.4890   -1.2460   -0.9300 C   0  0  0  0  0  0  0  0  0  0  0  0
   10.1090   -0.0520   -0.3150 C   0  0  0  0  0  3  0  0  0  0  0  0
    9.9210    1.6650    2.4250 C   0  0  0  0  0  1  0  0  0  0  0  0
    8.9700    1.0120    1.5940 O   0  0  0  0  0  0  0  0  0  0  0  0
   11.1750   -1.3650   -2.1080 O   0  0  0  0  0  0  0  0  0  0  0  0
   10.9170   -0.3950   -3.1140 C   0  0  0  0  0  1  0  0  0  0  0  0
  1  7  1  0  0  0  0
  2  1  2  0  0  0  0
  2  3  1  0  0  0  0
  3  4  2  0  0  0  0
  4  5  1  0  0  0  0
  4 16  1  0  0  0  0
  5  6  2  0  0  0  0
  7  5  1  0  0  0  0
  8  7  1  0  0  0  0
  9  3  1  0  0  0  0
  9 15  1  0  0  0  0
 10  9  2  0  0  0  0
 11 10  1  0  0  0  0
 11 12  2  0  0  0  0
 12 14  1  0  0  0  0
 13 12  1  0  0  0  0
 14 15  2  0  0  0  0
 16 17  3  0  0  0  0
 18  1  1  0  0  0  0
 18 19  1  0  0  0  0
 20 21  1  0  0  0  0
 20 27  1  0  0  0  0
 22 21  2  0  0  0  0
 22 19  1  0  0  0  0
 23 22  1  0  0  0  0
 24 23  2  0  0  0  0
 24 25  1  0  0  0  0
 25 20  2  0  0  0  0
 27 26  1  0  0  0  0
 28 24  1  0  0  0  0
 29 28  1  0  0  0  0
M  END
>  <minimizedAffinity>
-6.95070076

$$$$
