REMARK  Name = 
REMARK  5 active torsions:
REMARK  status: ('A' for Active; 'I' for Inactive)
REMARK    1  A    between atoms: C_2  and  C_3
REMARK    2  A    between atoms: C_4  and  C_5
REMARK    3  A    between atoms: C_14  and  S_15
REMARK    4  A    between atoms: S_15  and  C_16
REMARK    5  A    between atoms: C_16  and  C_17
REMARK                            x       y       z     vdW  Elec       q    Type
REMARK                         _______ _______ _______ _____ _____    ______ ____
ROOT
ATOM      1  C   UNL     1       3.866  -0.042  -0.031  0.00  0.00    +0.142 A 
ATOM      2  C   UNL     1       4.628   1.015   0.312  0.00  0.00    +0.099 A 
ATOM      3  N   UNL     1       6.008   1.006   0.296  0.00  0.00    -0.222 NA
ATOM      4  C   UNL     1       6.585  -0.039  -0.190  0.00  0.00    +0.170 A 
ATOM      5  N   UNL     1       5.920  -1.126  -0.654  0.00  0.00    -0.301 N 
ATOM      6  C   UNL     1       4.567  -1.240  -0.536  0.00  0.00    +0.270 A 
ATOM      7  O   UNL     1       3.987  -2.277  -0.837  0.00  0.00    -0.266 OA
ATOM      8  H   UNL     1       6.423  -1.904  -1.049  0.00  0.00    +0.171 HD
ENDROOT
BRANCH   2   9
ATOM      9  C   UNL     1       4.011   2.301   0.696  0.00  0.00    +0.037 A 
ATOM     10  C   UNL     1       4.143   2.791   2.002  0.00  0.00    +0.016 A 
ATOM     11  C   UNL     1       3.575   4.020   2.348  0.00  0.00    +0.039 A 
ATOM     12  C   UNL     1       2.886   4.759   1.389  0.00  0.00    +0.126 A 
ATOM     13  F   UNL     1       2.348   5.937   1.729  0.00  0.00    -0.205 F 
ATOM     14  C   UNL     1       2.756   4.300   0.087  0.00  0.00    +0.077 A 
ATOM     15  C   UNL     1       3.323   3.078  -0.251  0.00  0.00    +0.135 A 
ATOM     16  F   UNL     1       3.205   2.643  -1.515  0.00  0.00    -0.205 F 
ENDBRANCH   2   9
BRANCH   1  18
ATOM     17  N   UNL     1       1.085  -0.042  -0.031  0.00  0.00    -0.191 NA
ATOM     18  C   UNL     1       2.346  -0.042  -0.031  0.00  0.00    +0.107 C 
ENDBRANCH   1  18
BRANCH   4  19
ATOM     19  S   UNL     1       8.307  -0.107  -0.345  0.00  0.00    -0.083 S 
BRANCH  19  20
ATOM     20  C   UNL     1       8.759  -1.556   0.642  0.00  0.00    +0.113 C 
BRANCH  20  21
ATOM     21  C   UNL     1       7.931  -1.823   1.875  0.00  0.00    -0.023 A 
ATOM     22  C   UNL     1       7.051  -2.925   1.864  0.00  0.00    +0.005 A 
ATOM     23  C   UNL     1       6.250  -3.223   2.967  0.00  0.00    +0.000 A 
ATOM     24  C   UNL     1       6.321  -2.433   4.108  0.00  0.00    +0.001 A 
ATOM     25  C   UNL     1       7.196  -1.349   4.148  0.00  0.00    +0.015 A 
ATOM     26  C   UNL     1       8.000  -1.045   3.043  0.00  0.00    +0.022 A 
ATOM     27 BR   UNL     1       9.185   0.428   3.221  0.00  0.00    -0.050 Br
ENDBRANCH  20  21
ENDBRANCH  19  20
ENDBRANCH   4  19
TORSDOF 5
