
 OpenBabel09122222393D

 27 29  0  0  0  0  0  0  0  0999 V2000
    5.8560   -5.7630    0.8700 C   0  0  0  0  0  0  0  0  0  0  0  0
    5.9000   -5.2310    2.1070 C   0  0  0  0  0  0  0  0  0  0  0  0
    6.9580   -4.4850    2.5860 N   0  0  0  0  0  0  0  0  0  0  0  0
    7.8960   -4.1900    1.7530 C   0  0  0  0  0  0  0  0  0  0  0  0
    7.9130   -4.5890    0.4570 N   0  0  0  0  0  0  0  0  0  0  0  0
    6.9750   -5.4430   -0.0400 C   0  0  0  0  0  0  0  0  0  0  0  0
    7.0680   -5.9020   -1.1720 O   0  0  0  0  0  0  0  0  0  0  0  0
    8.6590   -4.3040   -0.1560 H   0  0  0  0  0  0  0  0  0  0  0  0
    4.7640   -5.3820    3.0380 C   0  0  0  0  0  0  0  0  0  0  0  0
    4.4770   -6.6270    3.6140 C   0  0  0  0  0  3  0  0  0  0  0  0
    3.4140   -6.7530    4.5120 C   0  0  0  0  0  3  0  0  0  0  0  0
    2.6460   -5.6370    4.8380 C   0  0  0  0  0  0  0  0  0  0  0  0
    1.6310   -5.7670    5.7010 F   0  0  0  0  0  0  0  0  0  0  0  0
    2.9210   -4.3930    4.2910 C   0  0  0  0  0  3  0  0  0  0  0  0
    3.9800   -4.2730    3.4000 C   0  0  0  0  0  0  0  0  0  0  0  0
    4.2500   -3.0650    2.8820 F   0  0  0  0  0  0  0  0  0  0  0  0
    3.7260   -7.2470   -0.1280 N   0  0  0  0  0  1  0  0  0  0  0  0
    4.6920   -6.5740    0.3240 C   0  0  0  0  0  2  0  0  0  0  0  0
    9.2160   -3.1770    2.2300 S   0  0  0  0  0  0  0  0  0  0  0  0
   10.3500   -3.2770    0.8220 C   0  0  0  0  0  2  0  0  0  0  0  0
   10.4920   -2.0360   -0.0250 C   0  0  0  0  0  0  0  0  0  0  0  0
    9.8050   -0.8710    0.3750 C   0  0  0  0  0  3  0  0  0  0  0  0
    9.8860    0.3080   -0.3670 C   0  0  0  0  0  3  0  0  0  0  0  0
   10.6650    0.3500   -1.5170 C   0  0  0  0  0  3  0  0  0  0  0  0
   11.3660   -0.7840   -1.9220 C   0  0  0  0  0  3  0  0  0  0  0  0
   11.2870   -1.9700   -1.1820 C   0  0  0  0  0  0  0  0  0  0  0  0
   12.3150   -3.4410   -1.8010 Br  0  0  0  0  0  0  0  0  0  0  0  0
  1  2  2  0  0  0  0
  2  3  1  0  0  0  0
  2  9  1  0  0  0  0
  4 19  1  0  0  0  0
  4  3  2  0  0  0  0
  5  4  1  0  0  0  0
  6  5  1  0  0  0  0
  6  1  1  0  0  0  0
  7  6  2  0  0  0  0
  8  5  1  0  0  0  0
  9 15  2  0  0  0  0
  9 10  1  0  0  0  0
 10 11  2  0  0  0  0
 11 12  1  0  0  0  0
 12 13  1  0  0  0  0
 14 12  2  0  0  0  0
 15 14  1  0  0  0  0
 16 15  1  0  0  0  0
 17 18  1  0  0  0  0
 18  1  1  0  0  0  0
 20 19  1  0  0  0  0
 21 22  1  0  0  0  0
 21 20  1  0  0  0  0
 23 22  2  0  0  0  0
 24 23  1  0  0  0  0
 25 24  2  0  0  0  0
 25 26  1  0  0  0  0
 26 21  2  0  0  0  0
 27 26  1  0  0  0  0
M  END
>  <minimizedAffinity>
-7.01327276

$$$$
