
 OpenBabel09122222393D

 27 29  0  0  0  0  0  0  0  0999 V2000
    6.3430   -5.2580    2.2260 C   0  0  0  0  0  0  0  0  0  0  0  0
    6.4500   -4.1440    2.9770 C   0  0  0  0  0  0  0  0  0  0  0  0
    7.5510   -3.3120    2.9670 N   0  0  0  0  0  0  0  0  0  0  0  0
    8.4710   -3.5620    2.1000 C   0  0  0  0  0  0  0  0  0  0  0  0
    8.4290   -4.5990    1.2270 N   0  0  0  0  0  0  0  0  0  0  0  0
    7.4420   -5.5370    1.2790 C   0  0  0  0  0  0  0  0  0  0  0  0
    7.4790   -6.5410    0.5760 O   0  0  0  0  0  0  0  0  0  0  0  0
    9.1640   -4.7300    0.5510 H   0  0  0  0  0  0  0  0  0  0  0  0
    5.3400   -3.7100    3.8500 C   0  0  0  0  0  0  0  0  0  0  0  0
    4.0750   -3.4430    3.3120 C   0  0  0  0  0  3  0  0  0  0  0  0
    3.0260   -3.0550    4.1510 C   0  0  0  0  0  3  0  0  0  0  0  0
    3.2420   -2.9450    5.5230 C   0  0  0  0  0  0  0  0  0  0  0  0
    2.2300   -2.5760    6.3190 F   0  0  0  0  0  0  0  0  0  0  0  0
    4.4820   -3.2190    6.0780 C   0  0  0  0  0  3  0  0  0  0  0  0
    5.5200   -3.6040    5.2400 C   0  0  0  0  0  0  0  0  0  0  0  0
    6.7160   -3.8790    5.7830 F   0  0  0  0  0  0  0  0  0  0  0  0
    4.1260   -6.9360    2.2090 N   0  0  0  0  0  1  0  0  0  0  0  0
    5.1310   -6.1750    2.2170 C   0  0  0  0  0  2  0  0  0  0  0  0
    9.8440   -2.5210    1.9410 S   0  0  0  0  0  0  0  0  0  0  0  0
    9.6410   -1.8110    0.2880 C   0  0  0  0  0  2  0  0  0  0  0  0
   10.7680   -2.0360   -0.6900 C   0  0  0  0  0  0  0  0  0  0  0  0
   11.2800   -3.3420   -0.8320 C   0  0  0  0  0  3  0  0  0  0  0  0
   12.3280   -3.6180   -1.7120 C   0  0  0  0  0  3  0  0  0  0  0  0
   12.8770   -2.5960   -2.4770 C   0  0  0  0  0  3  0  0  0  0  0  0
   12.3750   -1.3000   -2.3660 C   0  0  0  0  0  3  0  0  0  0  0  0
   11.3260   -1.0180   -1.4830 C   0  0  0  0  0  0  0  0  0  0  0  0
   10.6940    0.7720   -1.4420 Br  0  0  0  0  0  0  0  0  0  0  0  0
  1  2  2  0  0  0  0
  2  9  1  0  0  0  0
  3  2  1  0  0  0  0
  4  3  2  0  0  0  0
  5  6  1  0  0  0  0
  5  4  1  0  0  0  0
  6  1  1  0  0  0  0
  7  6  2  0  0  0  0
  8  5  1  0  0  0  0
  9 15  1  0  0  0  0
 10  9  2  0  0  0  0
 10 11  1  0  0  0  0
 11 12  2  0  0  0  0
 12 14  1  0  0  0  0
 12 13  1  0  0  0  0
 15 16  1  0  0  0  0
 15 14  2  0  0  0  0
 17 18  1  0  0  0  0
 18  1  1  0  0  0  0
 19  4  1  0  0  0  0
 20 19  1  0  0  0  0
 21 20  1  0  0  0  0
 22 21  1  0  0  0  0
 23 22  2  0  0  0  0
 24 25  2  0  0  0  0
 24 23  1  0  0  0  0
 25 26  1  0  0  0  0
 26 27  1  0  0  0  0
 26 21  2  0  0  0  0
M  END
>  <minimizedAffinity>
-7.09694242

$$$$
