
 OpenBabel09122222393D

 27 29  0  0  0  0  0  0  0  0999 V2000
    6.2510   -5.3250    2.3000 C   0  0  0  0  0  0  0  0  0  0  0  0
    6.3620   -4.1740    2.9910 C   0  0  0  0  0  0  0  0  0  0  0  0
    7.4500   -3.3290    2.9100 N   0  0  0  0  0  0  0  0  0  0  0  0
    8.3490   -3.6090    2.0310 C   0  0  0  0  0  0  0  0  0  0  0  0
    8.2990   -4.6880    1.2110 N   0  0  0  0  0  0  0  0  0  0  0  0
    7.3280   -5.6360    1.3370 C   0  0  0  0  0  0  0  0  0  0  0  0
    7.3610   -6.6730    0.6840 O   0  0  0  0  0  0  0  0  0  0  0  0
    9.0170   -4.8420    0.5230 H   0  0  0  0  0  0  0  0  0  0  0  0
    5.2700   -3.7120    3.8730 C   0  0  0  0  0  0  0  0  0  0  0  0
    3.9980   -3.4440    3.3490 C   0  0  0  0  0  3  0  0  0  0  0  0
    2.9670   -3.0300    4.1960 C   0  0  0  0  0  3  0  0  0  0  0  0
    3.2040   -2.8940    5.5610 C   0  0  0  0  0  0  0  0  0  0  0  0
    2.2090   -2.5000    6.3650 F   0  0  0  0  0  0  0  0  0  0  0  0
    4.4510   -3.1690    6.1030 C   0  0  0  0  0  3  0  0  0  0  0  0
    5.4720   -3.5800    5.2570 C   0  0  0  0  0  0  0  0  0  0  0  0
    6.6740   -3.8560    5.7870 F   0  0  0  0  0  0  0  0  0  0  0  0
    4.0600   -7.0320    2.4260 N   0  0  0  0  0  1  0  0  0  0  0  0
    5.0530   -6.2580    2.3690 C   0  0  0  0  0  2  0  0  0  0  0  0
    9.7020   -2.5580    1.7830 S   0  0  0  0  0  0  0  0  0  0  0  0
   10.2620   -2.9830    0.1150 C   0  0  0  0  0  2  0  0  0  0  0  0
   10.7060   -1.8400   -0.7640 C   0  0  0  0  0  0  0  0  0  0  0  0
   10.0840   -0.5860   -0.5950 C   0  0  0  0  0  3  0  0  0  0  0  0
   10.4410    0.5110   -1.3810 C   0  0  0  0  0  3  0  0  0  0  0  0
   11.4350    0.3790   -2.3430 C   0  0  0  0  0  3  0  0  0  0  0  0
   12.0760   -0.8460   -2.5150 C   0  0  0  0  0  3  0  0  0  0  0  0
   11.7200   -1.9500   -1.7310 C   0  0  0  0  0  0  0  0  0  0  0  0
   12.6850   -3.5590   -2.0220 Br  0  0  0  0  0  0  0  0  0  0  0  0
  1 18  1  0  0  0  0
  1  2  2  0  0  0  0
  2  9  1  0  0  0  0
  3  2  1  0  0  0  0
  4  3  2  0  0  0  0
  5  6  1  0  0  0  0
  5  4  1  0  0  0  0
  6  1  1  0  0  0  0
  7  6  2  0  0  0  0
  8  5  1  0  0  0  0
  9 15  1  0  0  0  0
 10  9  2  0  0  0  0
 10 11  1  0  0  0  0
 11 12  2  0  0  0  0
 12 14  1  0  0  0  0
 12 13  1  0  0  0  0
 15 16  1  0  0  0  0
 15 14  2  0  0  0  0
 18 17  1  0  0  0  0
 19  4  1  0  0  0  0
 20 19  1  0  0  0  0
 21 22  1  0  0  0  0
 21 20  1  0  0  0  0
 23 22  2  0  0  0  0
 24 23  1  0  0  0  0
 25 24  2  0  0  0  0
 25 26  1  0  0  0  0
 26 21  2  0  0  0  0
 27 26  1  0  0  0  0
M  END
>  <minimizedAffinity>
-7.17058897

$$$$
