
 OpenBabel09122222393D

 27 29  0  0  0  0  0  0  0  0999 V2000
    8.9490   -3.7530    0.9670 C   0  0  0  0  0  0  0  0  0  0  0  0
    8.3710   -3.4790    2.1520 C   0  0  0  0  0  0  0  0  0  0  0  0
    7.1500   -3.9860    2.5480 N   0  0  0  0  0  0  0  0  0  0  0  0
    6.6000   -4.8650    1.7820 C   0  0  0  0  0  0  0  0  0  0  0  0
    7.1350   -5.2900    0.6110 N   0  0  0  0  0  0  0  0  0  0  0  0
    8.2630   -4.7270    0.0940 C   0  0  0  0  0  0  0  0  0  0  0  0
    8.6670   -5.0240   -1.0250 O   0  0  0  0  0  0  0  0  0  0  0  0
    6.6740   -6.0000    0.0650 H   0  0  0  0  0  0  0  0  0  0  0  0
    9.0510   -2.6250    3.1480 C   0  0  0  0  0  0  0  0  0  0  0  0
    9.6880   -3.1960    4.2570 C   0  0  0  0  0  3  0  0  0  0  0  0
   10.3490   -2.3810    5.1800 C   0  0  0  0  0  3  0  0  0  0  0  0
   10.3780   -1.0020    4.9890 C   0  0  0  0  0  0  0  0  0  0  0  0
   11.0170   -0.2290    5.8770 F   0  0  0  0  0  0  0  0  0  0  0  0
    9.7670   -0.4170    3.8900 C   0  0  0  0  0  3  0  0  0  0  0  0
    9.1120   -1.2320    2.9760 C   0  0  0  0  0  0  0  0  0  0  0  0
    8.5320   -0.6630    1.9090 F   0  0  0  0  0  0  0  0  0  0  0  0
   11.4180   -2.7630    0.1550 N   0  0  0  0  0  1  0  0  0  0  0  0
   10.2990   -3.2120    0.5230 C   0  0  0  0  0  2  0  0  0  0  0  0
    5.1190   -5.6330    2.2380 S   0  0  0  0  0  0  0  0  0  0  0  0
    5.0730   -5.4200    4.0360 C   0  0  0  0  0  2  0  0  0  0  0  0
    4.2000   -4.3090    4.5660 C   0  0  0  0  0  0  0  0  0  0  0  0
    2.8550   -4.2560    4.1430 C   0  0  0  0  0  3  0  0  0  0  0  0
    1.9960   -3.2500    4.5870 C   0  0  0  0  0  3  0  0  0  0  0  0
    2.4590   -2.2840    5.4720 C   0  0  0  0  0  3  0  0  0  0  0  0
    3.7800   -2.3270    5.9170 C   0  0  0  0  0  3  0  0  0  0  0  0
    4.6460   -3.3330    5.4730 C   0  0  0  0  0  0  0  0  0  0  0  0
    6.4100   -3.3210    6.1740 Br  0  0  0  0  0  0  0  0  0  0  0  0
  1  2  2  0  0  0  0
  2  3  1  0  0  0  0
  2  9  1  0  0  0  0
  4 19  1  0  0  0  0
  4  3  2  0  0  0  0
  5  4  1  0  0  0  0
  6  5  1  0  0  0  0
  6  1  1  0  0  0  0
  7  6  2  0  0  0  0
  8  5  1  0  0  0  0
  9 10  1  0  0  0  0
 10 11  2  0  0  0  0
 12 11  1  0  0  0  0
 12 13  1  0  0  0  0
 14 12  2  0  0  0  0
 15  9  2  0  0  0  0
 15 14  1  0  0  0  0
 16 15  1  0  0  0  0
 17 18  1  0  0  0  0
 18  1  1  0  0  0  0
 19 20  1  0  0  0  0
 20 21  1  0  0  0  0
 21 26  1  0  0  0  0
 22 21  2  0  0  0  0
 22 23  1  0  0  0  0
 23 24  2  0  0  0  0
 24 25  1  0  0  0  0
 26 25  2  0  0  0  0
 26 27  1  0  0  0  0
M  END
>  <minimizedAffinity>
-7.04533672

$$$$
