
 OpenBabel09122219263D

 27 29  0  0  0  0  0  0  0  0999 V2000
    8.7000   -3.5310    0.9790 C   0  0  0  0  0  0  0  0  0  0  0  0
    9.6250   -2.5560    1.0840 C   0  0  0  0  0  0  0  0  0  0  0  0
    9.8550   -1.8350    2.2380 N   0  0  0  0  0  0  0  0  0  0  0  0
    9.2260   -2.2070    3.3000 C   0  0  0  0  0  0  0  0  0  0  0  0
    8.3430   -3.2350    3.3380 N   0  0  0  0  0  0  0  0  0  0  0  0
    7.9640   -3.8940    2.2070 C   0  0  0  0  0  0  0  0  0  0  0  0
    7.0710   -4.7330    2.2270 O   0  0  0  0  0  0  0  0  0  0  0  0
    7.9010   -3.4990    4.2040 H   0  0  0  0  0  0  0  0  0  0  0  0
   10.5040   -2.2200   -0.0540 C   0  0  0  0  0  0  0  0  0  0  0  0
   10.2650   -1.0730   -0.8230 C   0  0  0  0  0  3  0  0  0  0  0  0
   11.1180   -0.7520   -1.8820 C   0  0  0  0  0  3  0  0  0  0  0  0
   12.2090   -1.5700   -2.1660 C   0  0  0  0  0  0  0  0  0  0  0  0
   13.0220   -1.2530   -3.1810 F   0  0  0  0  0  0  0  0  0  0  0  0
   12.4730   -2.7010   -1.4090 C   0  0  0  0  0  3  0  0  0  0  0  0
   11.6220   -3.0150   -0.3570 C   0  0  0  0  0  0  0  0  0  0  0  0
   11.8870   -4.1040    0.3810 F   0  0  0  0  0  0  0  0  0  0  0  0
    8.2340   -5.0130   -1.3270 N   0  0  0  0  0  1  0  0  0  0  0  0
    8.4460   -4.3410   -0.2820 C   0  0  0  0  0  2  0  0  0  0  0  0
    9.5190   -1.4320    4.8190 S   0  0  0  0  0  0  0  0  0  0  0  0
    8.6170   -2.4670    5.9990 C   0  0  0  0  0  2  0  0  0  0  0  0
    7.4930   -1.8080    6.7600 C   0  0  0  0  0  0  0  0  0  0  0  0
    7.7830   -0.6530    7.5150 C   0  0  0  0  0  3  0  0  0  0  0  0
    6.7930    0.0010    8.2490 C   0  0  0  0  0  3  0  0  0  0  0  0
    5.4890   -0.4800    8.2330 C   0  0  0  0  0  3  0  0  0  0  0  0
    5.1750   -1.6100    7.4810 C   0  0  0  0  0  3  0  0  0  0  0  0
    6.1660   -2.2700    6.7440 C   0  0  0  0  0  0  0  0  0  0  0  0
    5.6200   -3.7740    5.7220 Br  0  0  0  0  0  0  0  0  0  0  0  0
  1  2  2  0  0  0  0
  1  6  1  0  0  0  0
  2  3  1  0  0  0  0
  3  4  2  0  0  0  0
  4  5  1  0  0  0  0
  4 19  1  0  0  0  0
  5  8  1  0  0  0  0
  6  7  2  0  0  0  0
  6  5  1  0  0  0  0
  9  2  1  0  0  0  0
 10  9  2  0  0  0  0
 11 10  1  0  0  0  0
 12 11  2  0  0  0  0
 12 14  1  0  0  0  0
 13 12  1  0  0  0  0
 14 15  2  0  0  0  0
 15  9  1  0  0  0  0
 15 16  1  0  0  0  0
 17 18  1  0  0  0  0
 18  1  1  0  0  0  0
 19 20  1  0  0  0  0
 20 21  1  0  0  0  0
 21 22  1  0  0  0  0
 22 23  2  0  0  0  0
 24 23  1  0  0  0  0
 25 24  2  0  0  0  0
 26 21  2  0  0  0  0
 26 25  1  0  0  0  0
 27 26  1  0  0  0  0
M  END
>  <minimizedAffinity>
-7.41917801

$$$$

 OpenBabel09122219263D

 27 29  0  0  0  0  0  0  0  0999 V2000
    8.8300   -3.7640    0.9370 C   0  0  0  0  0  0  0  0  0  0  0  0
    9.9050   -2.9660    1.0900 C   0  0  0  0  0  0  0  0  0  0  0  0
   10.2900   -2.4160    2.2960 N   0  0  0  0  0  0  0  0  0  0  0  0
    9.6440   -2.7900    3.3470 C   0  0  0  0  0  0  0  0  0  0  0  0
    8.6060   -3.6620    3.3280 N   0  0  0  0  0  0  0  0  0  0  0  0
    8.0860   -4.1300    2.1590 C   0  0  0  0  0  0  0  0  0  0  0  0
    7.0680   -4.8130    2.1420 O   0  0  0  0  0  0  0  0  0  0  0  0
    8.1560   -3.9400    4.1850 H   0  0  0  0  0  0  0  0  0  0  0  0
   10.7900   -2.6590   -0.0530 C   0  0  0  0  0  0  0  0  0  0  0  0
   11.7410   -3.5920   -0.4870 C   0  0  0  0  0  3  0  0  0  0  0  0
   12.5560   -3.3000   -1.5840 C   0  0  0  0  0  3  0  0  0  0  0  0
   12.4140   -2.0840   -2.2480 C   0  0  0  0  0  0  0  0  0  0  0  0
   13.1970   -1.8150   -3.3000 F   0  0  0  0  0  0  0  0  0  0  0  0
   11.4690   -1.1530   -1.8450 C   0  0  0  0  0  3  0  0  0  0  0  0
   10.6610   -1.4480   -0.7550 C   0  0  0  0  0  0  0  0  0  0  0  0
    9.7400   -0.5490   -0.3750 F   0  0  0  0  0  0  0  0  0  0  0  0
    8.0490   -4.9050   -1.4760 N   0  0  0  0  0  1  0  0  0  0  0  0
    8.4040   -4.3880   -0.3820 C   0  0  0  0  0  2  0  0  0  0  0  0
   10.1130   -2.2340    4.9170 S   0  0  0  0  0  0  0  0  0  0  0  0
    9.9320   -0.4370    4.7950 C   0  0  0  0  0  2  0  0  0  0  0  0
   10.8270    0.3970    5.6780 C   0  0  0  0  0  0  0  0  0  0  0  0
   11.3230   -0.1820    6.8650 C   0  0  0  0  0  3  0  0  0  0  0  0
   12.1490    0.5360    7.7310 C   0  0  0  0  0  3  0  0  0  0  0  0
   12.5040    1.8440    7.4230 C   0  0  0  0  0  3  0  0  0  0  0  0
   12.0400    2.4310    6.2470 C   0  0  0  0  0  3  0  0  0  0  0  0
   11.2100    1.7150    5.3770 C   0  0  0  0  0  0  0  0  0  0  0  0
   10.6690    2.5970    3.7840 Br  0  0  0  0  0  0  0  0  0  0  0  0
  1  2  2  0  0  0  0
  1  6  1  0  0  0  0
  2  3  1  0  0  0  0
  3  4  2  0  0  0  0
  4 19  1  0  0  0  0
  5  4  1  0  0  0  0
  5  8  1  0  0  0  0
  6  5  1  0  0  0  0
  7  6  2  0  0  0  0
  9  2  1  0  0  0  0
 10  9  1  0  0  0  0
 11 10  2  0  0  0  0
 12 14  2  0  0  0  0
 12 11  1  0  0  0  0
 13 12  1  0  0  0  0
 14 15  1  0  0  0  0
 15 16  1  0  0  0  0
 15  9  2  0  0  0  0
 17 18  1  0  0  0  0
 18  1  1  0  0  0  0
 20 19  1  0  0  0  0
 20 21  1  0  0  0  0
 21 22  1  0  0  0  0
 22 23  2  0  0  0  0
 24 23  1  0  0  0  0
 25 24  2  0  0  0  0
 26 21  2  0  0  0  0
 26 25  1  0  0  0  0
 27 26  1  0  0  0  0
M  END
>  <minimizedAffinity>
-7.24124575

$$$$

 OpenBabel09122219263D

 27 29  0  0  0  0  0  0  0  0999 V2000
    7.0980   -5.3760    0.3920 C   0  0  0  0  0  0  0  0  0  0  0  0
    6.9050   -4.9980    1.6710 C   0  0  0  0  0  0  0  0  0  0  0  0
    7.7380   -4.1320    2.3500 N   0  0  0  0  0  0  0  0  0  0  0  0
    8.6810   -3.5700    1.6750 C   0  0  0  0  0  0  0  0  0  0  0  0
    8.9130   -3.8000    0.3590 N   0  0  0  0  0  0  0  0  0  0  0  0
    8.2200   -4.7470   -0.3340 C   0  0  0  0  0  0  0  0  0  0  0  0
    8.5210   -5.0420   -1.4850 O   0  0  0  0  0  0  0  0  0  0  0  0
    9.6490   -3.3110   -0.1250 H   0  0  0  0  0  0  0  0  0  0  0  0
    5.7300   -5.4680    2.4310 C   0  0  0  0  0  0  0  0  0  0  0  0
    5.5320   -6.8360    2.6620 C   0  0  0  0  0  3  0  0  0  0  0  0
    4.4290   -7.2670    3.4030 C   0  0  0  0  0  3  0  0  0  0  0  0
    3.5320   -6.3340    3.9180 C   0  0  0  0  0  0  0  0  0  0  0  0
    2.4800   -6.7570    4.6290 F   0  0  0  0  0  0  0  0  0  0  0  0
    3.7160   -4.9750    3.7140 C   0  0  0  0  0  3  0  0  0  0  0  0
    4.8150   -4.5510    2.9770 C   0  0  0  0  0  0  0  0  0  0  0  0
    4.9960   -3.2350    2.7930 F   0  0  0  0  0  0  0  0  0  0  0  0
    5.4210   -7.0990   -1.0070 N   0  0  0  0  0  1  0  0  0  0  0  0
    6.1810   -6.3180   -0.3730 C   0  0  0  0  0  2  0  0  0  0  0  0
    9.7170   -2.3950    2.4110 S   0  0  0  0  0  0  0  0  0  0  0  0
    8.9660   -0.8180    1.9350 C   0  0  0  0  0  2  0  0  0  0  0  0
    9.6550   -0.0410    0.8400 C   0  0  0  0  0  0  0  0  0  0  0  0
    9.8780   -0.6810   -0.3960 C   0  0  0  0  0  3  0  0  0  0  0  0
   10.5180   -0.0230   -1.4470 C   0  0  0  0  0  3  0  0  0  0  0  0
   10.9370    1.2920   -1.2880 C   0  0  0  0  0  3  0  0  0  0  0  0
   10.7120    1.9500   -0.0810 C   0  0  0  0  0  3  0  0  0  0  0  0
   10.0720    1.2940    0.9770 C   0  0  0  0  0  0  0  0  0  0  0  0
    9.7800    2.2980    2.5620 Br  0  0  0  0  0  0  0  0  0  0  0  0
  1  2  2  0  0  0  0
  2  3  1  0  0  0  0
  2  9  1  0  0  0  0
  4  3  2  0  0  0  0
  4 19  1  0  0  0  0
  5  4  1  0  0  0  0
  6  5  1  0  0  0  0
  6  1  1  0  0  0  0
  7  6  2  0  0  0  0
  8  5  1  0  0  0  0
  9 10  2  0  0  0  0
  9 15  1  0  0  0  0
 10 11  1  0  0  0  0
 11 12  2  0  0  0  0
 12 13  1  0  0  0  0
 14 12  1  0  0  0  0
 15 14  2  0  0  0  0
 16 15  1  0  0  0  0
 17 18  1  0  0  0  0
 18  1  1  0  0  0  0
 20 19  1  0  0  0  0
 21 26  1  0  0  0  0
 21 20  1  0  0  0  0
 22 21  2  0  0  0  0
 23 24  2  0  0  0  0
 23 22  1  0  0  0  0
 24 25  1  0  0  0  0
 25 26  2  0  0  0  0
 26 27  1  0  0  0  0
M  END
>  <minimizedAffinity>
-7.17521715

$$$$

 OpenBabel09122219263D

 27 29  0  0  0  0  0  0  0  0999 V2000
    6.2510   -5.3250    2.3000 C   0  0  0  0  0  0  0  0  0  0  0  0
    6.3620   -4.1740    2.9910 C   0  0  0  0  0  0  0  0  0  0  0  0
    7.4500   -3.3290    2.9100 N   0  0  0  0  0  0  0  0  0  0  0  0
    8.3490   -3.6090    2.0310 C   0  0  0  0  0  0  0  0  0  0  0  0
    8.2990   -4.6880    1.2110 N   0  0  0  0  0  0  0  0  0  0  0  0
    7.3280   -5.6360    1.3370 C   0  0  0  0  0  0  0  0  0  0  0  0
    7.3610   -6.6730    0.6840 O   0  0  0  0  0  0  0  0  0  0  0  0
    9.0170   -4.8420    0.5230 H   0  0  0  0  0  0  0  0  0  0  0  0
    5.2700   -3.7120    3.8730 C   0  0  0  0  0  0  0  0  0  0  0  0
    3.9980   -3.4440    3.3490 C   0  0  0  0  0  3  0  0  0  0  0  0
    2.9670   -3.0300    4.1960 C   0  0  0  0  0  3  0  0  0  0  0  0
    3.2040   -2.8940    5.5610 C   0  0  0  0  0  0  0  0  0  0  0  0
    2.2090   -2.5000    6.3650 F   0  0  0  0  0  0  0  0  0  0  0  0
    4.4510   -3.1690    6.1030 C   0  0  0  0  0  3  0  0  0  0  0  0
    5.4720   -3.5800    5.2570 C   0  0  0  0  0  0  0  0  0  0  0  0
    6.6740   -3.8560    5.7870 F   0  0  0  0  0  0  0  0  0  0  0  0
    4.0600   -7.0320    2.4260 N   0  0  0  0  0  1  0  0  0  0  0  0
    5.0530   -6.2580    2.3690 C   0  0  0  0  0  2  0  0  0  0  0  0
    9.7020   -2.5580    1.7830 S   0  0  0  0  0  0  0  0  0  0  0  0
   10.2620   -2.9830    0.1150 C   0  0  0  0  0  2  0  0  0  0  0  0
   10.7060   -1.8400   -0.7640 C   0  0  0  0  0  0  0  0  0  0  0  0
   10.0840   -0.5860   -0.5950 C   0  0  0  0  0  3  0  0  0  0  0  0
   10.4410    0.5110   -1.3810 C   0  0  0  0  0  3  0  0  0  0  0  0
   11.4350    0.3790   -2.3430 C   0  0  0  0  0  3  0  0  0  0  0  0
   12.0760   -0.8460   -2.5150 C   0  0  0  0  0  3  0  0  0  0  0  0
   11.7200   -1.9500   -1.7310 C   0  0  0  0  0  0  0  0  0  0  0  0
   12.6850   -3.5590   -2.0220 Br  0  0  0  0  0  0  0  0  0  0  0  0
  1 18  1  0  0  0  0
  1  2  2  0  0  0  0
  2  9  1  0  0  0  0
  3  2  1  0  0  0  0
  4  3  2  0  0  0  0
  5  6  1  0  0  0  0
  5  4  1  0  0  0  0
  6  1  1  0  0  0  0
  7  6  2  0  0  0  0
  8  5  1  0  0  0  0
  9 15  1  0  0  0  0
 10  9  2  0  0  0  0
 10 11  1  0  0  0  0
 11 12  2  0  0  0  0
 12 14  1  0  0  0  0
 12 13  1  0  0  0  0
 15 16  1  0  0  0  0
 15 14  2  0  0  0  0
 18 17  1  0  0  0  0
 19  4  1  0  0  0  0
 20 19  1  0  0  0  0
 21 22  1  0  0  0  0
 21 20  1  0  0  0  0
 23 22  2  0  0  0  0
 24 23  1  0  0  0  0
 25 24  2  0  0  0  0
 25 26  1  0  0  0  0
 26 21  2  0  0  0  0
 27 26  1  0  0  0  0
M  END
>  <minimizedAffinity>
-7.17058897

$$$$

 OpenBabel09122219263D

 27 29  0  0  0  0  0  0  0  0999 V2000
    6.3430   -5.2580    2.2260 C   0  0  0  0  0  0  0  0  0  0  0  0
    6.4500   -4.1440    2.9770 C   0  0  0  0  0  0  0  0  0  0  0  0
    7.5510   -3.3120    2.9670 N   0  0  0  0  0  0  0  0  0  0  0  0
    8.4710   -3.5620    2.1000 C   0  0  0  0  0  0  0  0  0  0  0  0
    8.4290   -4.5990    1.2270 N   0  0  0  0  0  0  0  0  0  0  0  0
    7.4420   -5.5370    1.2790 C   0  0  0  0  0  0  0  0  0  0  0  0
    7.4790   -6.5410    0.5760 O   0  0  0  0  0  0  0  0  0  0  0  0
    9.1640   -4.7300    0.5510 H   0  0  0  0  0  0  0  0  0  0  0  0
    5.3400   -3.7100    3.8500 C   0  0  0  0  0  0  0  0  0  0  0  0
    4.0750   -3.4430    3.3120 C   0  0  0  0  0  3  0  0  0  0  0  0
    3.0260   -3.0550    4.1510 C   0  0  0  0  0  3  0  0  0  0  0  0
    3.2420   -2.9450    5.5230 C   0  0  0  0  0  0  0  0  0  0  0  0
    2.2300   -2.5760    6.3190 F   0  0  0  0  0  0  0  0  0  0  0  0
    4.4820   -3.2190    6.0780 C   0  0  0  0  0  3  0  0  0  0  0  0
    5.5200   -3.6040    5.2400 C   0  0  0  0  0  0  0  0  0  0  0  0
    6.7160   -3.8790    5.7830 F   0  0  0  0  0  0  0  0  0  0  0  0
    4.1260   -6.9360    2.2090 N   0  0  0  0  0  1  0  0  0  0  0  0
    5.1310   -6.1750    2.2170 C   0  0  0  0  0  2  0  0  0  0  0  0
    9.8440   -2.5210    1.9410 S   0  0  0  0  0  0  0  0  0  0  0  0
    9.6410   -1.8110    0.2880 C   0  0  0  0  0  2  0  0  0  0  0  0
   10.7680   -2.0360   -0.6900 C   0  0  0  0  0  0  0  0  0  0  0  0
   11.2800   -3.3420   -0.8320 C   0  0  0  0  0  3  0  0  0  0  0  0
   12.3280   -3.6180   -1.7120 C   0  0  0  0  0  3  0  0  0  0  0  0
   12.8770   -2.5960   -2.4770 C   0  0  0  0  0  3  0  0  0  0  0  0
   12.3750   -1.3000   -2.3660 C   0  0  0  0  0  3  0  0  0  0  0  0
   11.3260   -1.0180   -1.4830 C   0  0  0  0  0  0  0  0  0  0  0  0
   10.6940    0.7720   -1.4420 Br  0  0  0  0  0  0  0  0  0  0  0  0
  1  2  2  0  0  0  0
  2  9  1  0  0  0  0
  3  2  1  0  0  0  0
  4  3  2  0  0  0  0
  5  6  1  0  0  0  0
  5  4  1  0  0  0  0
  6  1  1  0  0  0  0
  7  6  2  0  0  0  0
  8  5  1  0  0  0  0
  9 15  1  0  0  0  0
 10  9  2  0  0  0  0
 10 11  1  0  0  0  0
 11 12  2  0  0  0  0
 12 14  1  0  0  0  0
 12 13  1  0  0  0  0
 15 16  1  0  0  0  0
 15 14  2  0  0  0  0
 17 18  1  0  0  0  0
 18  1  1  0  0  0  0
 19  4  1  0  0  0  0
 20 19  1  0  0  0  0
 21 20  1  0  0  0  0
 22 21  1  0  0  0  0
 23 22  2  0  0  0  0
 24 25  2  0  0  0  0
 24 23  1  0  0  0  0
 25 26  1  0  0  0  0
 26 27  1  0  0  0  0
 26 21  2  0  0  0  0
M  END
>  <minimizedAffinity>
-7.09694242

$$$$

 OpenBabel09122219263D

 27 29  0  0  0  0  0  0  0  0999 V2000
    8.9490   -3.7530    0.9670 C   0  0  0  0  0  0  0  0  0  0  0  0
    8.3710   -3.4790    2.1520 C   0  0  0  0  0  0  0  0  0  0  0  0
    7.1500   -3.9860    2.5480 N   0  0  0  0  0  0  0  0  0  0  0  0
    6.6000   -4.8650    1.7820 C   0  0  0  0  0  0  0  0  0  0  0  0
    7.1350   -5.2900    0.6110 N   0  0  0  0  0  0  0  0  0  0  0  0
    8.2630   -4.7270    0.0940 C   0  0  0  0  0  0  0  0  0  0  0  0
    8.6670   -5.0240   -1.0250 O   0  0  0  0  0  0  0  0  0  0  0  0
    6.6740   -6.0000    0.0650 H   0  0  0  0  0  0  0  0  0  0  0  0
    9.0510   -2.6250    3.1480 C   0  0  0  0  0  0  0  0  0  0  0  0
    9.6880   -3.1960    4.2570 C   0  0  0  0  0  3  0  0  0  0  0  0
   10.3490   -2.3810    5.1800 C   0  0  0  0  0  3  0  0  0  0  0  0
   10.3780   -1.0020    4.9890 C   0  0  0  0  0  0  0  0  0  0  0  0
   11.0170   -0.2290    5.8770 F   0  0  0  0  0  0  0  0  0  0  0  0
    9.7670   -0.4170    3.8900 C   0  0  0  0  0  3  0  0  0  0  0  0
    9.1120   -1.2320    2.9760 C   0  0  0  0  0  0  0  0  0  0  0  0
    8.5320   -0.6630    1.9090 F   0  0  0  0  0  0  0  0  0  0  0  0
   11.4180   -2.7630    0.1550 N   0  0  0  0  0  1  0  0  0  0  0  0
   10.2990   -3.2120    0.5230 C   0  0  0  0  0  2  0  0  0  0  0  0
    5.1190   -5.6330    2.2380 S   0  0  0  0  0  0  0  0  0  0  0  0
    5.0730   -5.4200    4.0360 C   0  0  0  0  0  2  0  0  0  0  0  0
    4.2000   -4.3090    4.5660 C   0  0  0  0  0  0  0  0  0  0  0  0
    2.8550   -4.2560    4.1430 C   0  0  0  0  0  3  0  0  0  0  0  0
    1.9960   -3.2500    4.5870 C   0  0  0  0  0  3  0  0  0  0  0  0
    2.4590   -2.2840    5.4720 C   0  0  0  0  0  3  0  0  0  0  0  0
    3.7800   -2.3270    5.9170 C   0  0  0  0  0  3  0  0  0  0  0  0
    4.6460   -3.3330    5.4730 C   0  0  0  0  0  0  0  0  0  0  0  0
    6.4100   -3.3210    6.1740 Br  0  0  0  0  0  0  0  0  0  0  0  0
  1  2  2  0  0  0  0
  2  3  1  0  0  0  0
  2  9  1  0  0  0  0
  4 19  1  0  0  0  0
  4  3  2  0  0  0  0
  5  4  1  0  0  0  0
  6  5  1  0  0  0  0
  6  1  1  0  0  0  0
  7  6  2  0  0  0  0
  8  5  1  0  0  0  0
  9 10  1  0  0  0  0
 10 11  2  0  0  0  0
 12 11  1  0  0  0  0
 12 13  1  0  0  0  0
 14 12  2  0  0  0  0
 15  9  2  0  0  0  0
 15 14  1  0  0  0  0
 16 15  1  0  0  0  0
 17 18  1  0  0  0  0
 18  1  1  0  0  0  0
 19 20  1  0  0  0  0
 20 21  1  0  0  0  0
 21 26  1  0  0  0  0
 22 21  2  0  0  0  0
 22 23  1  0  0  0  0
 23 24  2  0  0  0  0
 24 25  1  0  0  0  0
 26 25  2  0  0  0  0
 26 27  1  0  0  0  0
M  END
>  <minimizedAffinity>
-7.04533672

$$$$

 OpenBabel09122219263D

 27 29  0  0  0  0  0  0  0  0999 V2000
    5.8560   -5.7630    0.8700 C   0  0  0  0  0  0  0  0  0  0  0  0
    5.9000   -5.2310    2.1070 C   0  0  0  0  0  0  0  0  0  0  0  0
    6.9580   -4.4850    2.5860 N   0  0  0  0  0  0  0  0  0  0  0  0
    7.8960   -4.1900    1.7530 C   0  0  0  0  0  0  0  0  0  0  0  0
    7.9130   -4.5890    0.4570 N   0  0  0  0  0  0  0  0  0  0  0  0
    6.9750   -5.4430   -0.0400 C   0  0  0  0  0  0  0  0  0  0  0  0
    7.0680   -5.9020   -1.1720 O   0  0  0  0  0  0  0  0  0  0  0  0
    8.6590   -4.3040   -0.1560 H   0  0  0  0  0  0  0  0  0  0  0  0
    4.7640   -5.3820    3.0380 C   0  0  0  0  0  0  0  0  0  0  0  0
    4.4770   -6.6270    3.6140 C   0  0  0  0  0  3  0  0  0  0  0  0
    3.4140   -6.7530    4.5120 C   0  0  0  0  0  3  0  0  0  0  0  0
    2.6460   -5.6370    4.8380 C   0  0  0  0  0  0  0  0  0  0  0  0
    1.6310   -5.7670    5.7010 F   0  0  0  0  0  0  0  0  0  0  0  0
    2.9210   -4.3930    4.2910 C   0  0  0  0  0  3  0  0  0  0  0  0
    3.9800   -4.2730    3.4000 C   0  0  0  0  0  0  0  0  0  0  0  0
    4.2500   -3.0650    2.8820 F   0  0  0  0  0  0  0  0  0  0  0  0
    3.7260   -7.2470   -0.1280 N   0  0  0  0  0  1  0  0  0  0  0  0
    4.6920   -6.5740    0.3240 C   0  0  0  0  0  2  0  0  0  0  0  0
    9.2160   -3.1770    2.2300 S   0  0  0  0  0  0  0  0  0  0  0  0
   10.3500   -3.2770    0.8220 C   0  0  0  0  0  2  0  0  0  0  0  0
   10.4920   -2.0360   -0.0250 C   0  0  0  0  0  0  0  0  0  0  0  0
    9.8050   -0.8710    0.3750 C   0  0  0  0  0  3  0  0  0  0  0  0
    9.8860    0.3080   -0.3670 C   0  0  0  0  0  3  0  0  0  0  0  0
   10.6650    0.3500   -1.5170 C   0  0  0  0  0  3  0  0  0  0  0  0
   11.3660   -0.7840   -1.9220 C   0  0  0  0  0  3  0  0  0  0  0  0
   11.2870   -1.9700   -1.1820 C   0  0  0  0  0  0  0  0  0  0  0  0
   12.3150   -3.4410   -1.8010 Br  0  0  0  0  0  0  0  0  0  0  0  0
  1  2  2  0  0  0  0
  2  3  1  0  0  0  0
  2  9  1  0  0  0  0
  4 19  1  0  0  0  0
  4  3  2  0  0  0  0
  5  4  1  0  0  0  0
  6  5  1  0  0  0  0
  6  1  1  0  0  0  0
  7  6  2  0  0  0  0
  8  5  1  0  0  0  0
  9 15  2  0  0  0  0
  9 10  1  0  0  0  0
 10 11  2  0  0  0  0
 11 12  1  0  0  0  0
 12 13  1  0  0  0  0
 14 12  2  0  0  0  0
 15 14  1  0  0  0  0
 16 15  1  0  0  0  0
 17 18  1  0  0  0  0
 18  1  1  0  0  0  0
 20 19  1  0  0  0  0
 21 22  1  0  0  0  0
 21 20  1  0  0  0  0
 23 22  2  0  0  0  0
 24 23  1  0  0  0  0
 25 24  2  0  0  0  0
 25 26  1  0  0  0  0
 26 21  2  0  0  0  0
 27 26  1  0  0  0  0
M  END
>  <minimizedAffinity>
-7.01327276

$$$$

 OpenBabel09122219263D

 27 29  0  0  0  0  0  0  0  0999 V2000
    8.9280   -3.6900    0.9990 C   0  0  0  0  0  0  0  0  0  0  0  0
   10.0250   -2.9150    1.1070 C   0  0  0  0  0  0  0  0  0  0  0  0
   10.4610   -2.3600    2.2930 N   0  0  0  0  0  0  0  0  0  0  0  0
    9.8420   -2.7070    3.3690 C   0  0  0  0  0  0  0  0  0  0  0  0
    8.7840   -3.5550    3.3950 N   0  0  0  0  0  0  0  0  0  0  0  0
    8.2170   -4.0250    2.2490 C   0  0  0  0  0  0  0  0  0  0  0  0
    7.1830   -4.6840    2.2740 O   0  0  0  0  0  0  0  0  0  0  0  0
    8.3570   -3.8140    4.2700 H   0  0  0  0  0  0  0  0  0  0  0  0
   10.8780   -2.6410   -0.0670 C   0  0  0  0  0  0  0  0  0  0  0  0
   11.8210   -3.5840   -0.4970 C   0  0  0  0  0  3  0  0  0  0  0  0
   12.6070   -3.3240   -1.6230 C   0  0  0  0  0  3  0  0  0  0  0  0
   12.4430   -2.1300   -2.3210 C   0  0  0  0  0  0  0  0  0  0  0  0
   13.1970   -1.8910   -3.4010 F   0  0  0  0  0  0  0  0  0  0  0  0
   11.5050   -1.1890   -1.9220 C   0  0  0  0  0  3  0  0  0  0  0  0
   10.7280   -1.4530   -0.8020 C   0  0  0  0  0  0  0  0  0  0  0  0
    9.8140   -0.5450   -0.4270 F   0  0  0  0  0  0  0  0  0  0  0  0
    8.0440   -4.8400   -1.3730 N   0  0  0  0  0  1  0  0  0  0  0  0
    8.4450   -4.3190   -0.2980 C   0  0  0  0  0  2  0  0  0  0  0  0
   10.3740   -2.1440    4.9160 S   0  0  0  0  0  0  0  0  0  0  0  0
    9.5300   -0.5520    5.0950 C   0  0  0  0  0  2  0  0  0  0  0  0
   10.3490    0.6850    4.8220 C   0  0  0  0  0  0  0  0  0  0  0  0
   10.1370    1.3740    3.6090 C   0  0  0  0  0  3  0  0  0  0  0  0
   10.8660    2.5200    3.2900 C   0  0  0  0  0  3  0  0  0  0  0  0
   11.8140    3.0070    4.1810 C   0  0  0  0  0  3  0  0  0  0  0  0
   12.0290    2.3530    5.3930 C   0  0  0  0  0  3  0  0  0  0  0  0
   11.3010    1.2020    5.7170 C   0  0  0  0  0  0  0  0  0  0  0  0
   11.6440    0.4150    7.4100 Br  0  0  0  0  0  0  0  0  0  0  0  0
  1  2  2  0  0  0  0
  1  6  1  0  0  0  0
  2  3  1  0  0  0  0
  3  4  2  0  0  0  0
  4  5  1  0  0  0  0
  4 19  1  0  0  0  0
  5  8  1  0  0  0  0
  6  7  2  0  0  0  0
  6  5  1  0  0  0  0
  9  2  1  0  0  0  0
 10  9  1  0  0  0  0
 11 10  2  0  0  0  0
 12 14  2  0  0  0  0
 12 11  1  0  0  0  0
 13 12  1  0  0  0  0
 14 15  1  0  0  0  0
 15 16  1  0  0  0  0
 15  9  2  0  0  0  0
 17 18  1  0  0  0  0
 18  1  1  0  0  0  0
 19 20  1  0  0  0  0
 21 20  1  0  0  0  0
 21 26  1  0  0  0  0
 22 21  2  0  0  0  0
 23 22  1  0  0  0  0
 23 24  2  0  0  0  0
 24 25  1  0  0  0  0
 25 26  2  0  0  0  0
 26 27  1  0  0  0  0
M  END
>  <minimizedAffinity>
-6.96725988

$$$$

 OpenBabel09122219263D

 27 29  0  0  0  0  0  0  0  0999 V2000
    8.4440   -2.9290    4.2750 C   0  0  0  0  0  0  0  0  0  0  0  0
    8.0020   -3.1690    3.0250 C   0  0  0  0  0  0  0  0  0  0  0  0
    6.7600   -3.6990    2.7370 N   0  0  0  0  0  0  0  0  0  0  0  0
    5.9440   -3.8560    3.7210 C   0  0  0  0  0  0  0  0  0  0  0  0
    6.2440   -3.5610    5.0110 N   0  0  0  0  0  0  0  0  0  0  0  0
    7.4960   -3.1700    5.3810 C   0  0  0  0  0  0  0  0  0  0  0  0
    7.7960   -3.0310    6.5620 O   0  0  0  0  0  0  0  0  0  0  0  0
    5.5560   -3.6780    5.7360 H   0  0  0  0  0  0  0  0  0  0  0  0
    8.8290   -2.8280    1.8500 C   0  0  0  0  0  0  0  0  0  0  0  0
    9.3610   -3.8380    1.0380 C   0  0  0  0  0  3  0  0  0  0  0  0
   10.1230   -3.5030   -0.0850 C   0  0  0  0  0  3  0  0  0  0  0  0
   10.3440   -2.1640   -0.3980 C   0  0  0  0  0  0  0  0  0  0  0  0
   11.0730   -1.8530   -1.4770 F   0  0  0  0  0  0  0  0  0  0  0  0
    9.8150   -1.1480    0.3840 C   0  0  0  0  0  3  0  0  0  0  0  0
    9.0580   -1.4870    1.4980 C   0  0  0  0  0  0  0  0  0  0  0  0
    8.5380   -0.5010    2.2450 F   0  0  0  0  0  0  0  0  0  0  0  0
   10.9300   -1.8410    4.8820 N   0  0  0  0  0  1  0  0  0  0  0  0
    9.8030   -2.3340    4.6070 C   0  0  0  0  0  2  0  0  0  0  0  0
    4.3300   -4.4200    3.4510 S   0  0  0  0  0  0  0  0  0  0  0  0
    3.6640   -4.5990    5.1250 C   0  0  0  0  0  2  0  0  0  0  0  0
    3.0800   -3.3610    5.7590 C   0  0  0  0  0  0  0  0  0  0  0  0
    2.1900   -2.5750    4.9970 C   0  0  0  0  0  3  0  0  0  0  0  0
    1.6210   -1.4130    5.5200 C   0  0  0  0  0  3  0  0  0  0  0  0
    1.9200   -1.0190    6.8180 C   0  0  0  0  0  3  0  0  0  0  0  0
    2.7830   -1.7890    7.5960 C   0  0  0  0  0  3  0  0  0  0  0  0
    3.3580   -2.9550    7.0750 C   0  0  0  0  0  0  0  0  0  0  0  0
    4.4860   -3.9490    8.2340 Br  0  0  0  0  0  0  0  0  0  0  0  0
  1 18  1  0  0  0  0
  1  6  1  0  0  0  0
  2  1  2  0  0  0  0
  3  2  1  0  0  0  0
  3  4  2  0  0  0  0
  4  5  1  0  0  0  0
  5  6  1  0  0  0  0
  5  8  1  0  0  0  0
  6  7  2  0  0  0  0
  9  2  1  0  0  0  0
 10  9  2  0  0  0  0
 11 10  1  0  0  0  0
 12 11  2  0  0  0  0
 12 14  1  0  0  0  0
 13 12  1  0  0  0  0
 14 15  2  0  0  0  0
 15  9  1  0  0  0  0
 15 16  1  0  0  0  0
 18 17  1  0  0  0  0
 19  4  1  0  0  0  0
 19 20  1  0  0  0  0
 20 21  1  0  0  0  0
 21 26  1  0  0  0  0
 22 23  1  0  0  0  0
 22 21  2  0  0  0  0
 23 24  2  0  0  0  0
 24 25  1  0  0  0  0
 26 25  2  0  0  0  0
 26 27  1  0  0  0  0
M  END
>  <minimizedAffinity>
-6.78831768

$$$$

 OpenBabel09122219263D

 27 29  0  0  0  0  0  0  0  0999 V2000
   10.2750    2.6370    2.6170 C   0  0  0  0  0  0  0  0  0  0  0  0
   11.0440    3.4340    1.8500 C   0  0  0  0  0  0  0  0  0  0  0  0
   11.4300    3.1220    0.5630 N   0  0  0  0  0  0  0  0  0  0  0  0
   10.9220    2.0620    0.0350 C   0  0  0  0  0  0  0  0  0  0  0  0
   10.0620    1.2330    0.6770 N   0  0  0  0  0  0  0  0  0  0  0  0
    9.7520    1.4050    1.9930 C   0  0  0  0  0  0  0  0  0  0  0  0
    9.0790    0.5800    2.6010 O   0  0  0  0  0  0  0  0  0  0  0  0
    9.6740    0.4330    0.2050 H   0  0  0  0  0  0  0  0  0  0  0  0
   11.4980    4.7510    2.3430 C   0  0  0  0  0  0  0  0  0  0  0  0
   12.6660    4.8600    3.1080 C   0  0  0  0  0  3  0  0  0  0  0  0
   13.0990    6.1130    3.5490 C   0  0  0  0  0  3  0  0  0  0  0  0
   12.3700    7.2530    3.2180 C   0  0  0  0  0  0  0  0  0  0  0  0
   12.7940    8.4500    3.6420 F   0  0  0  0  0  0  0  0  0  0  0  0
   11.2180    7.1700    2.4490 C   0  0  0  0  0  3  0  0  0  0  0  0
   10.7940    5.9210    2.0130 C   0  0  0  0  0  0  0  0  0  0  0  0
    9.6860    5.8470    1.2600 F   0  0  0  0  0  0  0  0  0  0  0  0
    9.4620    3.2530    5.2050 N   0  0  0  0  0  1  0  0  0  0  0  0
    9.8300    2.9730    4.0310 C   0  0  0  0  0  2  0  0  0  0  0  0
   11.2660    1.6390   -1.6070 S   0  0  0  0  0  0  0  0  0  0  0  0
   10.4260    0.0490   -1.8140 C   0  0  0  0  0  2  0  0  0  0  0  0
   11.3040   -1.1740   -1.9200 C   0  0  0  0  0  0  0  0  0  0  0  0
   12.3440   -1.1710   -2.8720 C   0  0  0  0  0  3  0  0  0  0  0  0
   13.1870   -2.2720   -3.0290 C   0  0  0  0  0  3  0  0  0  0  0  0
   13.0150   -3.3940   -2.2280 C   0  0  0  0  0  3  0  0  0  0  0  0
   12.0050   -3.4140   -1.2680 C   0  0  0  0  0  3  0  0  0  0  0  0
   11.1560   -2.3120   -1.1090 C   0  0  0  0  0  0  0  0  0  0  0  0
    9.8410   -2.4300    0.2550 Br  0  0  0  0  0  0  0  0  0  0  0  0
  1 18  1  0  0  0  0
  2  9  1  0  0  0  0
  2  1  2  0  0  0  0
  3  2  1  0  0  0  0
  4  3  2  0  0  0  0
  4  5  1  0  0  0  0
  5  6  1  0  0  0  0
  6  7  2  0  0  0  0
  6  1  1  0  0  0  0
  8  5  1  0  0  0  0
  9 10  1  0  0  0  0
 10 11  2  0  0  0  0
 12 11  1  0  0  0  0
 12 13  1  0  0  0  0
 14 12  2  0  0  0  0
 15  9  2  0  0  0  0
 15 14  1  0  0  0  0
 16 15  1  0  0  0  0
 18 17  1  0  0  0  0
 19  4  1  0  0  0  0
 20 19  1  0  0  0  0
 21 20  1  0  0  0  0
 21 26  1  0  0  0  0
 22 21  2  0  0  0  0
 23 22  1  0  0  0  0
 23 24  2  0  0  0  0
 24 25  1  0  0  0  0
 25 26  2  0  0  0  0
 26 27  1  0  0  0  0
M  END
>  <minimizedAffinity>
-6.64127779

$$$$
