REMARK  Name = 
REMARK  7 active torsions:
REMARK  status: ('A' for Active; 'I' for Inactive)
REMARK    1  A    between atoms: C_1  and  O_2
REMARK    2  A    between atoms: O_2  and  C_3
REMARK    3  A    between atoms: C_4  and  O_5
REMARK    4  A    between atoms: C_6  and  C_7
REMARK    5  A    between atoms: C_7  and  O_8
REMARK    6  A    between atoms: C_10  and  N_11
REMARK    7  A    between atoms: C_15  and  O_16
REMARK                            x       y       z     vdW  Elec       q    Type
REMARK                         _______ _______ _______ _____ _____    ______ ____
ROOT
ATOM      1  N   UNL     1       0.860  -4.753   0.746  0.00  0.00    -0.285 N 
ATOM      2  C   UNL     1       2.021  -5.464   0.597  0.00  0.00    +0.203 A 
ATOM      3  N   UNL     1       2.392  -6.040   1.721  0.00  0.00    -0.229 NA
ATOM      4  C   UNL     1       1.413  -5.708   2.631  0.00  0.00    +0.169 A 
ATOM      5  C   UNL     1       1.192  -5.989   3.973  0.00  0.00    +0.245 A 
ATOM      6  N   UNL     1       0.115  -5.505   4.620  0.00  0.00    -0.178 NA
ATOM      7  C   UNL     1      -0.742  -4.738   3.922  0.00  0.00    +0.218 A 
ATOM      8  N   UNL     1      -1.826  -4.264   4.601  0.00  0.00    -0.327 N 
ATOM      9  N   UNL     1      -0.642  -4.392   2.628  0.00  0.00    -0.195 NA
ATOM     10  C   UNL     1       0.449  -4.907   2.042  0.00  0.00    +0.171 A 
ATOM     11  H   UNL     1      -2.495  -3.710   4.094  0.00  0.00    +0.145 HD
ATOM     12  H   UNL     1      -1.941  -4.532   5.562  0.00  0.00    +0.145 HD
ENDROOT
BRANCH   1  17
ATOM     13  C   UNL     1       0.746  -2.511  -0.312  0.00  0.00    +0.198 C 
ATOM     14  C   UNL     1       0.396  -2.133  -1.744  0.00  0.00    +0.179 C 
ATOM     15  C   UNL     1       0.627  -3.435  -2.504  0.00  0.00    +0.177 C 
ATOM     16  O   UNL     1       0.428  -4.522  -1.560  0.00  0.00    -0.346 OA
ATOM     17  C   UNL     1       0.197  -3.940  -0.255  0.00  0.00    +0.254 C 
BRANCH  13  19
ATOM     18  C   UNL     1       0.867  -0.452   0.867  0.00  0.00    +0.194 C 
ATOM     19  O   UNL     1       0.115  -1.636   0.624  0.00  0.00    -0.373 OA
ENDBRANCH  13  19
BRANCH  14  20
ATOM     20  O   UNL     1      -0.990  -1.772  -1.822  0.00  0.00    -0.386 OA
ATOM     21  H   UNL     1      -1.203  -1.291  -0.996  0.00  0.00    +0.210 HD
ENDBRANCH  14  20
BRANCH  15  22
ATOM     22  C   UNL     1       2.053  -3.558  -3.046  0.00  0.00    +0.190 C 
BRANCH  22  23
ATOM     23  O   UNL     1       2.208  -4.799  -3.730  0.00  0.00    -0.392 OA
ATOM     24  H   UNL     1       1.735  -5.473  -3.204  0.00  0.00    +0.210 HD
ENDBRANCH  22  23
ENDBRANCH  15  22
ENDBRANCH   1  17
BRANCH   5  25
ATOM     25  O   UNL     1       2.025  -6.757   4.738  0.00  0.00    -0.491 OA
ATOM     26  H   UNL     1       1.557  -6.737   5.590  0.00  0.00    +0.294 HD
ENDBRANCH   5  25
TORSDOF 6
