
 OpenBabel09132204463D

 26 28  0  0  1  0  0  0  0  0999 V2000
    3.3820   -8.3960    3.0620 N   0  0  0  0  0  0  0  0  0  0  0  0
    2.9150   -9.4430    2.3130 C   0  0  0  0  0  3  0  0  0  0  0  0
    3.4270   -9.4480    1.1010 N   0  0  0  0  0  0  0  0  0  0  0  0
    4.2840   -8.3700    1.0730 C   0  0  0  0  0  0  0  0  0  0  0  0
    5.1300   -7.8200    0.1180 C   0  0  0  0  0  0  0  0  0  0  0  0
    5.8650   -6.7240    0.3850 N   0  0  0  0  0  0  0  0  0  0  0  0
    5.7530   -6.1770    1.6090 C   0  0  0  0  0  0  0  0  0  0  0  0
    6.5110   -5.0700    1.8530 N   0  0  0  0  0  0  0  0  0  0  0  0
    4.9740   -6.6090    2.6150 N   0  0  0  0  0  0  0  0  0  0  0  0
    4.2710   -7.7030    2.2860 C   0  0  0  0  0  0  0  0  0  0  0  0
    6.4640   -4.6590    2.7700 H   0  0  0  0  0  0  0  0  0  0  0  0
    7.1250   -4.7440    1.1280 H   0  0  0  0  0  0  0  0  0  0  0  0
    1.8370   -8.9050    4.9370 C   0  0  2  0  0  3  0  0  0  0  0  0
    2.0660   -8.7940    6.4370 C   0  0  1  0  0  3  0  0  0  0  0  0
    3.5870   -8.7940    6.5480 C   0  0  2  0  0  3  0  0  0  0  0  0
    4.1070   -8.2590    5.3010 O   0  0  0  0  0  0  0  0  0  0  0  0
    2.9870   -8.0400    4.4110 C   0  0  1  0  0  3  0  0  0  0  0  0
   -0.4130   -9.4330    4.3890 C   0  0  0  0  0  1  0  0  0  0  0  0
    0.5520   -8.4020    4.5700 O   0  0  0  0  0  0  0  0  0  0  0  0
    1.5510   -7.5420    6.9120 O   0  0  0  0  0  0  0  0  0  0  0  0
    0.7310   -7.3650    6.4060 H   0  0  0  0  0  0  0  0  0  0  0  0
    4.1670  -10.2000    6.7180 C   0  0  0  0  0  2  0  0  0  0  0  0
    5.5320  -10.2150    6.3070 O   0  0  0  0  0  0  0  0  0  0  0  0
    5.5920   -9.6640    5.5030 H   0  0  0  0  0  0  0  0  0  0  0  0
    5.2860   -8.3240   -1.1430 O   0  0  0  0  0  0  0  0  0  0  0  0
    5.9390   -7.7020   -1.5060 H   0  0  0  0  0  0  0  0  0  0  0  0
  2  1  1  0  0  0  0
  3  2  2  0  0  0  0
  4  3  1  0  0  0  0
  4 10  2  0  0  0  0
  5  6  2  0  0  0  0
  5  4  1  0  0  0  0
  6  7  1  0  0  0  0
  7  8  1  0  0  0  0
  7  9  2  0  0  0  0
  8 11  1  0  0  0  0
 10  9  1  0  0  0  0
 10  1  1  0  0  0  0
 12  8  1  0  0  0  0
 13 19  1  1  0  0  0
 13 14  1  0  0  0  0
 14 15  1  0  0  0  0
 14 20  1  6  0  0  0
 15 22  1  6  0  0  0
 16 15  1  0  0  0  0
 17  1  1  6  0  0  0
 17 13  1  0  0  0  0
 17 16  1  0  0  0  0
 18 19  1  0  0  0  0
 21 20  1  0  0  0  0
 23 22  1  0  0  0  0
 24 23  1  0  0  0  0
 25  5  1  0  0  0  0
 26 25  1  0  0  0  0
M  END
>  <minimizedAffinity>
-5.82429028

$$$$
