
 OpenBabel09132204463D

 26 28  0  0  1  0  0  0  0  0999 V2000
    3.8630   -4.3570    4.4140 N   0  0  0  0  0  0  0  0  0  0  0  0
    2.5410   -4.2110    4.0860 C   0  0  0  0  0  3  0  0  0  0  0  0
    1.9670   -3.2490    4.7780 N   0  0  0  0  0  0  0  0  0  0  0  0
    2.9690   -2.7340    5.5710 C   0  0  0  0  0  0  0  0  0  0  0  0
    3.0430   -1.7170    6.5130 C   0  0  0  0  0  0  0  0  0  0  0  0
    4.1950   -1.4370    7.1510 N   0  0  0  0  0  0  0  0  0  0  0  0
    5.2760   -2.1780    6.8450 C   0  0  0  0  0  0  0  0  0  0  0  0
    6.4300   -1.8710    7.5030 N   0  0  0  0  0  0  0  0  0  0  0  0
    5.3360   -3.1850    5.9580 N   0  0  0  0  0  0  0  0  0  0  0  0
    4.1580   -3.4110    5.3570 C   0  0  0  0  0  0  0  0  0  0  0  0
    7.2580   -2.3930    7.2710 H   0  0  0  0  0  0  0  0  0  0  0  0
    6.4210   -1.1020    8.1490 H   0  0  0  0  0  0  0  0  0  0  0  0
    4.0930   -6.6790    3.5670 C   0  0  2  0  0  3  0  0  0  0  0  0
    5.0550   -7.2400    2.5300 C   0  0  1  0  0  3  0  0  0  0  0  0
    5.4910   -5.9950    1.7650 C   0  0  2  0  0  3  0  0  0  0  0  0
    5.3710   -4.8690    2.6760 O   0  0  0  0  0  0  0  0  0  0  0  0
    4.7850   -5.3550    3.9070 C   0  0  1  0  0  3  0  0  0  0  0  0
    2.6290   -7.8780    5.0040 C   0  0  0  0  0  1  0  0  0  0  0  0
    3.9790   -7.5500    4.6930 O   0  0  0  0  0  0  0  0  0  0  0  0
    6.1890   -7.8200    3.1880 O   0  0  0  0  0  0  0  0  0  0  0  0
    5.8540   -8.2490    4.0030 H   0  0  0  0  0  0  0  0  0  0  0  0
    4.5990   -5.7010    0.5560 C   0  0  0  0  0  2  0  0  0  0  0  0
    4.2500   -6.9180   -0.0980 O   0  0  0  0  0  0  0  0  0  0  0  0
    5.0510   -7.4780   -0.1000 H   0  0  0  0  0  0  0  0  0  0  0  0
    1.9820   -0.9320    6.8720 O   0  0  0  0  0  0  0  0  0  0  0  0
    2.4020   -0.3490    7.5270 H   0  0  0  0  0  0  0  0  0  0  0  0
  1 10  1  0  0  0  0
  2  1  1  0  0  0  0
  2  3  2  0  0  0  0
  3  4  1  0  0  0  0
  4  5  1  0  0  0  0
  5 25  1  0  0  0  0
  5  6  2  0  0  0  0
  7  6  1  0  0  0  0
  7  8  1  0  0  0  0
  8 12  1  0  0  0  0
  9  7  2  0  0  0  0
 10  4  2  0  0  0  0
 10  9  1  0  0  0  0
 11  8  1  0  0  0  0
 13 17  1  0  0  0  0
 13 19  1  1  0  0  0
 14 20  1  1  0  0  0
 14 13  1  0  0  0  0
 15 22  1  6  0  0  0
 15 14  1  0  0  0  0
 15 16  1  0  0  0  0
 16 17  1  0  0  0  0
 17  1  1  6  0  0  0
 19 18  1  0  0  0  0
 20 21  1  0  0  0  0
 23 22  1  0  0  0  0
 24 23  1  0  0  0  0
 25 26  1  0  0  0  0
M  END
>  <minimizedAffinity>
-5.98863268

$$$$
