
 OpenBabel09132204463D

 26 28  0  0  1  0  0  0  0  0999 V2000
    4.8920   -9.5370    3.9340 N   0  0  0  0  0  0  0  0  0  0  0  0
    5.3660  -10.6640    4.5520 C   0  0  0  0  0  3  0  0  0  0  0  0
    4.7790  -10.8710    5.7120 N   0  0  0  0  0  0  0  0  0  0  0  0
    3.8670   -9.8470    5.8380 C   0  0  0  0  0  0  0  0  0  0  0  0
    2.9360   -9.4830    6.8020 C   0  0  0  0  0  0  0  0  0  0  0  0
    2.1630   -8.3910    6.6480 N   0  0  0  0  0  0  0  0  0  0  0  0
    2.3230   -7.6630    5.5290 C   0  0  0  0  0  0  0  0  0  0  0  0
    1.5240   -6.5650    5.3980 N   0  0  0  0  0  0  0  0  0  0  0  0
    3.1840   -7.9050    4.5270 N   0  0  0  0  0  0  0  0  0  0  0  0
    3.9220   -9.0060    4.7400 C   0  0  0  0  0  0  0  0  0  0  0  0
    1.6070   -6.0190    4.5570 H   0  0  0  0  0  0  0  0  0  0  0  0
    0.8500   -6.3770    6.1180 H   0  0  0  0  0  0  0  0  0  0  0  0
    4.1990   -8.5930    1.7460 C   0  0  2  0  0  3  0  0  0  0  0  0
    4.8590   -7.5080    0.9070 C   0  0  1  0  0  3  0  0  0  0  0  0
    5.7340   -6.7810    1.9220 C   0  0  2  0  0  3  0  0  0  0  0  0
    6.0670   -7.7380    2.9630 O   0  0  0  0  0  0  0  0  0  0  0  0
    5.3520   -8.9650    2.6840 C   0  0  1  0  0  3  0  0  0  0  0  0
    2.4240  -10.0740    1.1980 C   0  0  0  0  0  1  0  0  0  0  0  0
    3.7680   -9.6860    0.9340 O   0  0  0  0  0  0  0  0  0  0  0  0
    5.6870   -8.1120   -0.0960 O   0  0  0  0  0  0  0  0  0  0  0  0
    5.2210   -8.9170   -0.4000 H   0  0  0  0  0  0  0  0  0  0  0  0
    5.0130   -5.6100    2.5940 C   0  0  0  0  0  2  0  0  0  0  0  0
    5.1440   -5.7060    4.0100 O   0  0  0  0  0  0  0  0  0  0  0  0
    5.0410   -6.6500    4.2400 H   0  0  0  0  0  0  0  0  0  0  0  0
    2.7280  -10.1770    7.9610 O   0  0  0  0  0  0  0  0  0  0  0  0
    2.0210   -9.6450    8.3650 H   0  0  0  0  0  0  0  0  0  0  0  0
  1  2  1  0  0  0  0
  1 10  1  0  0  0  0
  2  3  2  0  0  0  0
  3  4  1  0  0  0  0
  4  5  1  0  0  0  0
  5 25  1  0  0  0  0
  6  5  2  0  0  0  0
  7  6  1  0  0  0  0
  8  7  1  0  0  0  0
  8 12  1  0  0  0  0
  9 10  1  0  0  0  0
  9  7  2  0  0  0  0
 10  4  2  0  0  0  0
 11  8  1  0  0  0  0
 13 19  1  6  0  0  0
 13 17  1  0  0  0  0
 14 20  1  6  0  0  0
 14 13  1  0  0  0  0
 14 15  1  0  0  0  0
 15 22  1  1  0  0  0
 15 16  1  0  0  0  0
 17 16  1  0  0  0  0
 17  1  1  1  0  0  0
 19 18  1  0  0  0  0
 21 20  1  0  0  0  0
 22 23  1  0  0  0  0
 23 24  1  0  0  0  0
 25 26  1  0  0  0  0
M  END
>  <minimizedAffinity>
-5.55540848

$$$$
