
 OpenBabel09132204463D

 26 28  0  0  1  0  0  0  0  0999 V2000
    4.4880   -5.5730    3.7870 N   0  0  0  0  0  0  0  0  0  0  0  0
    5.4530   -4.8670    3.1190 C   0  0  0  0  0  3  0  0  0  0  0  0
    5.9500   -5.5500    2.1090 N   0  0  0  0  0  0  0  0  0  0  0  0
    5.2570   -6.7400    2.1090 C   0  0  0  0  0  0  0  0  0  0  0  0
    5.2810   -7.8830    1.3210 C   0  0  0  0  0  0  0  0  0  0  0  0
    4.4640   -8.9230    1.5730 N   0  0  0  0  0  0  0  0  0  0  0  0
    3.6220   -8.8180    2.6170 C   0  0  0  0  0  0  0  0  0  0  0  0
    2.8030   -9.8840    2.8480 N   0  0  0  0  0  0  0  0  0  0  0  0
    3.5030   -7.7740    3.4540 N   0  0  0  0  0  0  0  0  0  0  0  0
    4.3410   -6.7730    3.1470 C   0  0  0  0  0  0  0  0  0  0  0  0
    2.1460   -9.8190    3.6070 H   0  0  0  0  0  0  0  0  0  0  0  0
    2.8500  -10.6660    2.2190 H   0  0  0  0  0  0  0  0  0  0  0  0
    4.4890   -4.0380    5.7380 C   0  0  2  0  0  3  0  0  0  0  0  0
    3.3150   -3.4090    6.4750 C   0  0  1  0  0  3  0  0  0  0  0  0
    2.1820   -3.5130    5.4590 C   0  0  2  0  0  3  0  0  0  0  0  0
    2.4780   -4.6500    4.6040 O   0  0  0  0  0  0  0  0  0  0  0  0
    3.7770   -5.1650    4.9830 C   0  0  1  0  0  3  0  0  0  0  0  0
    6.5110   -3.5720    6.8950 C   0  0  0  0  0  1  0  0  0  0  0  0
    5.4760   -4.5190    6.6510 O   0  0  0  0  0  0  0  0  0  0  0  0
    2.9950   -4.1950    7.6320 O   0  0  0  0  0  0  0  0  0  0  0  0
    3.8450   -4.5140    8.0000 H   0  0  0  0  0  0  0  0  0  0  0  0
    2.0810   -2.2800    4.5580 C   0  0  0  0  0  2  0  0  0  0  0  0
    0.9510   -1.4960    4.9320 O   0  0  0  0  0  0  0  0  0  0  0  0
    0.2270   -2.1200    5.1320 H   0  0  0  0  0  0  0  0  0  0  0  0
    6.1140   -8.0530    0.2500 O   0  0  0  0  0  0  0  0  0  0  0  0
    5.8480   -8.9400   -0.0470 H   0  0  0  0  0  0  0  0  0  0  0  0
  2  1  1  0  0  0  0
  3  4  1  0  0  0  0
  3  2  2  0  0  0  0
  4 10  2  0  0  0  0
  5  6  2  0  0  0  0
  5  4  1  0  0  0  0
  6  7  1  0  0  0  0
  7  8  1  0  0  0  0
  7  9  2  0  0  0  0
  8 11  1  0  0  0  0
 10  9  1  0  0  0  0
 10  1  1  0  0  0  0
 12  8  1  0  0  0  0
 13 14  1  0  0  0  0
 13 19  1  1  0  0  0
 14 20  1  1  0  0  0
 15 22  1  6  0  0  0
 15 14  1  0  0  0  0
 16 17  1  0  0  0  0
 16 15  1  0  0  0  0
 17  1  1  6  0  0  0
 17 13  1  0  0  0  0
 19 18  1  0  0  0  0
 20 21  1  0  0  0  0
 22 23  1  0  0  0  0
 23 24  1  0  0  0  0
 25  5  1  0  0  0  0
 26 25  1  0  0  0  0
M  END
>  <minimizedAffinity>
-5.95398045

$$$$
