
 OpenBabel09122223163D

 26 28  0  0  1  0  0  0  0  0999 V2000
    3.7090   -7.2720    4.1450 N   0  0  0  0  0  0  0  0  0  0  0  0
    2.5160   -7.3940    4.8060 C   0  0  0  0  0  3  0  0  0  0  0  0
    2.1530   -6.2650    5.3780 N   0  0  0  0  0  0  0  0  0  0  0  0
    3.1440   -5.3660    5.0510 C   0  0  0  0  0  0  0  0  0  0  0  0
    3.3720   -4.0230    5.3210 C   0  0  0  0  0  0  0  0  0  0  0  0
    4.4680   -3.3930    4.8570 N   0  0  0  0  0  0  0  0  0  0  0  0
    5.3370   -4.1090    4.1210 C   0  0  0  0  0  0  0  0  0  0  0  0
    6.4360   -3.4450    3.6600 N   0  0  0  0  0  0  0  0  0  0  0  0
    5.2340   -5.4070    3.7920 N   0  0  0  0  0  0  0  0  0  0  0  0
    4.1220   -5.9750    4.2820 C   0  0  0  0  0  0  0  0  0  0  0  0
    7.0870   -3.9520    3.0850 H   0  0  0  0  0  0  0  0  0  0  0  0
    6.5220   -2.4660    3.8660 H   0  0  0  0  0  0  0  0  0  0  0  0
    4.2120   -9.7010    4.0840 C   0  0  2  0  0  3  0  0  0  0  0  0
    4.5100  -10.5990    2.8910 C   0  0  1  0  0  3  0  0  0  0  0  0
    3.9380   -9.8060    1.7210 C   0  0  2  0  0  3  0  0  0  0  0  0
    3.9790   -8.4020    2.0940 O   0  0  0  0  0  0  0  0  0  0  0  0
    4.4430   -8.3200    3.4630 C   0  0  1  0  0  3  0  0  0  0  0  0
    4.4090  -10.3370    6.3650 C   0  0  0  0  0  1  0  0  0  0  0  0
    5.0960   -9.9750    5.1720 O   0  0  0  0  0  0  0  0  0  0  0  0
    5.9290  -10.7330    2.7320 O   0  0  0  0  0  0  0  0  0  0  0  0
    6.3120  -10.7700    3.6320 H   0  0  0  0  0  0  0  0  0  0  0  0
    2.4780  -10.1570    1.4270 C   0  0  0  0  0  2  0  0  0  0  0  0
    1.9720   -9.3120    0.3960 O   0  0  0  0  0  0  0  0  0  0  0  0
    2.3230   -8.4160    0.5670 H   0  0  0  0  0  0  0  0  0  0  0  0
    2.5320   -3.2420    6.0650 O   0  0  0  0  0  0  0  0  0  0  0  0
    3.0000   -2.3910    6.0320 H   0  0  0  0  0  0  0  0  0  0  0  0
  1 10  1  0  0  0  0
  1  2  1  0  0  0  0
  2  3  2  0  0  0  0
  4  5  1  0  0  0  0
  4  3  1  0  0  0  0
  5 25  1  0  0  0  0
  6  5  2  0  0  0  0
  7  6  1  0  0  0  0
  8 12  1  0  0  0  0
  8  7  1  0  0  0  0
  9  7  2  0  0  0  0
  9 10  1  0  0  0  0
 10  4  2  0  0  0  0
 11  8  1  0  0  0  0
 13 19  1  1  0  0  0
 14 20  1  6  0  0  0
 14 13  1  0  0  0  0
 15 22  1  1  0  0  0
 15 16  1  0  0  0  0
 15 14  1  0  0  0  0
 16 17  1  0  0  0  0
 17 13  1  0  0  0  0
 17  1  1  1  0  0  0
 19 18  1  0  0  0  0
 20 21  1  0  0  0  0
 23 24  1  0  0  0  0
 23 22  1  0  0  0  0
 26 25  1  0  0  0  0
M  END
>  <minimizedAffinity>
-6.2345705

$$$$

 OpenBabel09122223163D

 26 28  0  0  1  0  0  0  0  0999 V2000
    4.4860   -5.6850    3.5870 N   0  0  0  0  0  0  0  0  0  0  0  0
    4.3190   -4.5800    2.7960 C   0  0  0  0  0  3  0  0  0  0  0  0
    3.7280   -3.5980    3.4430 N   0  0  0  0  0  0  0  0  0  0  0  0
    3.5270   -4.0810    4.7170 C   0  0  0  0  0  0  0  0  0  0  0  0
    2.9690   -3.5660    5.8800 C   0  0  0  0  0  0  0  0  0  0  0  0
    2.9040   -4.2980    7.0080 N   0  0  0  0  0  0  0  0  0  0  0  0
    3.3970   -5.5490    6.9710 C   0  0  0  0  0  0  0  0  0  0  0  0
    3.3210   -6.2680    8.1280 N   0  0  0  0  0  0  0  0  0  0  0  0
    3.9570   -6.1630    5.9150 N   0  0  0  0  0  0  0  0  0  0  0  0
    3.9940   -5.3800    4.8270 C   0  0  0  0  0  0  0  0  0  0  0  0
    3.7070   -7.1960    8.1330 H   0  0  0  0  0  0  0  0  0  0  0  0
    2.9340   -5.8220    8.9410 H   0  0  0  0  0  0  0  0  0  0  0  0
    3.9760   -7.9060    2.6040 C   0  0  2  0  0  3  0  0  0  0  0  0
    4.8480   -8.8060    1.7400 C   0  0  1  0  0  3  0  0  0  0  0  0
    5.8940   -7.8400    1.1930 C   0  0  2  0  0  3  0  0  0  0  0  0
    6.0210   -6.7580    2.1560 O   0  0  0  0  0  0  0  0  0  0  0  0
    5.0340   -6.9690    3.1930 C   0  0  1  0  0  3  0  0  0  0  0  0
    2.1810   -9.3890    3.0760 C   0  0  0  0  0  1  0  0  0  0  0  0
    3.2840   -8.6590    3.6010 O   0  0  0  0  0  0  0  0  0  0  0  0
    5.4890   -9.7900    2.5630 O   0  0  0  0  0  0  0  0  0  0  0  0
    4.8410  -10.0480    3.2500 H   0  0  0  0  0  0  0  0  0  0  0  0
    5.4800   -7.2150   -0.1410 C   0  0  0  0  0  2  0  0  0  0  0  0
    5.3500   -8.2290   -1.1340 O   0  0  0  0  0  0  0  0  0  0  0  0
    6.0890   -8.8540   -0.9990 H   0  0  0  0  0  0  0  0  0  0  0  0
    2.4480   -2.3060    5.9820 O   0  0  0  0  0  0  0  0  0  0  0  0
    2.1680   -2.3010    6.9130 H   0  0  0  0  0  0  0  0  0  0  0  0
  1 10  1  0  0  0  0
  2  3  2  0  0  0  0
  2  1  1  0  0  0  0
  3  4  1  0  0  0  0
  4 10  2  0  0  0  0
  4  5  1  0  0  0  0
  5 25  1  0  0  0  0
  5  6  2  0  0  0  0
  7  6  1  0  0  0  0
  7  8  1  0  0  0  0
  8 11  1  0  0  0  0
  8 12  1  0  0  0  0
  9  7  2  0  0  0  0
 10  9  1  0  0  0  0
 13 17  1  0  0  0  0
 13 19  1  1  0  0  0
 14 20  1  1  0  0  0
 14 13  1  0  0  0  0
 15 22  1  6  0  0  0
 15 14  1  0  0  0  0
 15 16  1  0  0  0  0
 16 17  1  0  0  0  0
 17  1  1  6  0  0  0
 18 19  1  0  0  0  0
 20 21  1  0  0  0  0
 23 24  1  0  0  0  0
 23 22  1  0  0  0  0
 25 26  1  0  0  0  0
M  END
>  <minimizedAffinity>
-6.11366653

$$$$

 OpenBabel09122223163D

 26 28  0  0  1  0  0  0  0  0999 V2000
    3.8630   -4.3570    4.4140 N   0  0  0  0  0  0  0  0  0  0  0  0
    2.5410   -4.2110    4.0860 C   0  0  0  0  0  3  0  0  0  0  0  0
    1.9670   -3.2490    4.7780 N   0  0  0  0  0  0  0  0  0  0  0  0
    2.9690   -2.7340    5.5710 C   0  0  0  0  0  0  0  0  0  0  0  0
    3.0430   -1.7170    6.5130 C   0  0  0  0  0  0  0  0  0  0  0  0
    4.1950   -1.4370    7.1510 N   0  0  0  0  0  0  0  0  0  0  0  0
    5.2760   -2.1780    6.8450 C   0  0  0  0  0  0  0  0  0  0  0  0
    6.4300   -1.8710    7.5030 N   0  0  0  0  0  0  0  0  0  0  0  0
    5.3360   -3.1850    5.9580 N   0  0  0  0  0  0  0  0  0  0  0  0
    4.1580   -3.4110    5.3570 C   0  0  0  0  0  0  0  0  0  0  0  0
    7.2580   -2.3930    7.2710 H   0  0  0  0  0  0  0  0  0  0  0  0
    6.4210   -1.1020    8.1490 H   0  0  0  0  0  0  0  0  0  0  0  0
    4.0930   -6.6790    3.5670 C   0  0  2  0  0  3  0  0  0  0  0  0
    5.0550   -7.2400    2.5300 C   0  0  1  0  0  3  0  0  0  0  0  0
    5.4910   -5.9950    1.7650 C   0  0  2  0  0  3  0  0  0  0  0  0
    5.3710   -4.8690    2.6760 O   0  0  0  0  0  0  0  0  0  0  0  0
    4.7850   -5.3550    3.9070 C   0  0  1  0  0  3  0  0  0  0  0  0
    2.6290   -7.8780    5.0040 C   0  0  0  0  0  1  0  0  0  0  0  0
    3.9790   -7.5500    4.6930 O   0  0  0  0  0  0  0  0  0  0  0  0
    6.1890   -7.8200    3.1880 O   0  0  0  0  0  0  0  0  0  0  0  0
    5.8540   -8.2490    4.0030 H   0  0  0  0  0  0  0  0  0  0  0  0
    4.5990   -5.7010    0.5560 C   0  0  0  0  0  2  0  0  0  0  0  0
    4.2500   -6.9180   -0.0980 O   0  0  0  0  0  0  0  0  0  0  0  0
    5.0510   -7.4780   -0.1000 H   0  0  0  0  0  0  0  0  0  0  0  0
    1.9820   -0.9320    6.8720 O   0  0  0  0  0  0  0  0  0  0  0  0
    2.4020   -0.3490    7.5270 H   0  0  0  0  0  0  0  0  0  0  0  0
  1 10  1  0  0  0  0
  2  1  1  0  0  0  0
  2  3  2  0  0  0  0
  3  4  1  0  0  0  0
  4  5  1  0  0  0  0
  5 25  1  0  0  0  0
  5  6  2  0  0  0  0
  7  6  1  0  0  0  0
  7  8  1  0  0  0  0
  8 12  1  0  0  0  0
  9  7  2  0  0  0  0
 10  4  2  0  0  0  0
 10  9  1  0  0  0  0
 11  8  1  0  0  0  0
 13 17  1  0  0  0  0
 13 19  1  1  0  0  0
 14 20  1  1  0  0  0
 14 13  1  0  0  0  0
 15 22  1  6  0  0  0
 15 14  1  0  0  0  0
 15 16  1  0  0  0  0
 16 17  1  0  0  0  0
 17  1  1  6  0  0  0
 19 18  1  0  0  0  0
 20 21  1  0  0  0  0
 23 22  1  0  0  0  0
 24 23  1  0  0  0  0
 25 26  1  0  0  0  0
M  END
>  <minimizedAffinity>
-5.98863268

$$$$

 OpenBabel09122223163D

 26 28  0  0  1  0  0  0  0  0999 V2000
    4.4880   -5.5730    3.7870 N   0  0  0  0  0  0  0  0  0  0  0  0
    5.4530   -4.8670    3.1190 C   0  0  0  0  0  3  0  0  0  0  0  0
    5.9500   -5.5500    2.1090 N   0  0  0  0  0  0  0  0  0  0  0  0
    5.2570   -6.7400    2.1090 C   0  0  0  0  0  0  0  0  0  0  0  0
    5.2810   -7.8830    1.3210 C   0  0  0  0  0  0  0  0  0  0  0  0
    4.4640   -8.9230    1.5730 N   0  0  0  0  0  0  0  0  0  0  0  0
    3.6220   -8.8180    2.6170 C   0  0  0  0  0  0  0  0  0  0  0  0
    2.8030   -9.8840    2.8480 N   0  0  0  0  0  0  0  0  0  0  0  0
    3.5030   -7.7740    3.4540 N   0  0  0  0  0  0  0  0  0  0  0  0
    4.3410   -6.7730    3.1470 C   0  0  0  0  0  0  0  0  0  0  0  0
    2.1460   -9.8190    3.6070 H   0  0  0  0  0  0  0  0  0  0  0  0
    2.8500  -10.6660    2.2190 H   0  0  0  0  0  0  0  0  0  0  0  0
    4.4890   -4.0380    5.7380 C   0  0  2  0  0  3  0  0  0  0  0  0
    3.3150   -3.4090    6.4750 C   0  0  1  0  0  3  0  0  0  0  0  0
    2.1820   -3.5130    5.4590 C   0  0  2  0  0  3  0  0  0  0  0  0
    2.4780   -4.6500    4.6040 O   0  0  0  0  0  0  0  0  0  0  0  0
    3.7770   -5.1650    4.9830 C   0  0  1  0  0  3  0  0  0  0  0  0
    6.5110   -3.5720    6.8950 C   0  0  0  0  0  1  0  0  0  0  0  0
    5.4760   -4.5190    6.6510 O   0  0  0  0  0  0  0  0  0  0  0  0
    2.9950   -4.1950    7.6320 O   0  0  0  0  0  0  0  0  0  0  0  0
    3.8450   -4.5140    8.0000 H   0  0  0  0  0  0  0  0  0  0  0  0
    2.0810   -2.2800    4.5580 C   0  0  0  0  0  2  0  0  0  0  0  0
    0.9510   -1.4960    4.9320 O   0  0  0  0  0  0  0  0  0  0  0  0
    0.2270   -2.1200    5.1320 H   0  0  0  0  0  0  0  0  0  0  0  0
    6.1140   -8.0530    0.2500 O   0  0  0  0  0  0  0  0  0  0  0  0
    5.8480   -8.9400   -0.0470 H   0  0  0  0  0  0  0  0  0  0  0  0
  2  1  1  0  0  0  0
  3  4  1  0  0  0  0
  3  2  2  0  0  0  0
  4 10  2  0  0  0  0
  5  6  2  0  0  0  0
  5  4  1  0  0  0  0
  6  7  1  0  0  0  0
  7  8  1  0  0  0  0
  7  9  2  0  0  0  0
  8 11  1  0  0  0  0
 10  9  1  0  0  0  0
 10  1  1  0  0  0  0
 12  8  1  0  0  0  0
 13 14  1  0  0  0  0
 13 19  1  1  0  0  0
 14 20  1  1  0  0  0
 15 22  1  6  0  0  0
 15 14  1  0  0  0  0
 16 17  1  0  0  0  0
 16 15  1  0  0  0  0
 17  1  1  6  0  0  0
 17 13  1  0  0  0  0
 19 18  1  0  0  0  0
 20 21  1  0  0  0  0
 22 23  1  0  0  0  0
 23 24  1  0  0  0  0
 25  5  1  0  0  0  0
 26 25  1  0  0  0  0
M  END
>  <minimizedAffinity>
-5.95398045

$$$$

 OpenBabel09122223163D

 26 28  0  0  1  0  0  0  0  0999 V2000
    3.3820   -8.3960    3.0620 N   0  0  0  0  0  0  0  0  0  0  0  0
    2.9150   -9.4430    2.3130 C   0  0  0  0  0  3  0  0  0  0  0  0
    3.4270   -9.4480    1.1010 N   0  0  0  0  0  0  0  0  0  0  0  0
    4.2840   -8.3700    1.0730 C   0  0  0  0  0  0  0  0  0  0  0  0
    5.1300   -7.8200    0.1180 C   0  0  0  0  0  0  0  0  0  0  0  0
    5.8650   -6.7240    0.3850 N   0  0  0  0  0  0  0  0  0  0  0  0
    5.7530   -6.1770    1.6090 C   0  0  0  0  0  0  0  0  0  0  0  0
    6.5110   -5.0700    1.8530 N   0  0  0  0  0  0  0  0  0  0  0  0
    4.9740   -6.6090    2.6150 N   0  0  0  0  0  0  0  0  0  0  0  0
    4.2710   -7.7030    2.2860 C   0  0  0  0  0  0  0  0  0  0  0  0
    6.4640   -4.6590    2.7700 H   0  0  0  0  0  0  0  0  0  0  0  0
    7.1250   -4.7440    1.1280 H   0  0  0  0  0  0  0  0  0  0  0  0
    1.8370   -8.9050    4.9370 C   0  0  2  0  0  3  0  0  0  0  0  0
    2.0660   -8.7940    6.4370 C   0  0  1  0  0  3  0  0  0  0  0  0
    3.5870   -8.7940    6.5480 C   0  0  2  0  0  3  0  0  0  0  0  0
    4.1070   -8.2590    5.3010 O   0  0  0  0  0  0  0  0  0  0  0  0
    2.9870   -8.0400    4.4110 C   0  0  1  0  0  3  0  0  0  0  0  0
   -0.4130   -9.4330    4.3890 C   0  0  0  0  0  1  0  0  0  0  0  0
    0.5520   -8.4020    4.5700 O   0  0  0  0  0  0  0  0  0  0  0  0
    1.5510   -7.5420    6.9120 O   0  0  0  0  0  0  0  0  0  0  0  0
    0.7310   -7.3650    6.4060 H   0  0  0  0  0  0  0  0  0  0  0  0
    4.1670  -10.2000    6.7180 C   0  0  0  0  0  2  0  0  0  0  0  0
    5.5320  -10.2150    6.3070 O   0  0  0  0  0  0  0  0  0  0  0  0
    5.5920   -9.6640    5.5030 H   0  0  0  0  0  0  0  0  0  0  0  0
    5.2860   -8.3240   -1.1430 O   0  0  0  0  0  0  0  0  0  0  0  0
    5.9390   -7.7020   -1.5060 H   0  0  0  0  0  0  0  0  0  0  0  0
  2  1  1  0  0  0  0
  3  2  2  0  0  0  0
  4  3  1  0  0  0  0
  4 10  2  0  0  0  0
  5  6  2  0  0  0  0
  5  4  1  0  0  0  0
  6  7  1  0  0  0  0
  7  8  1  0  0  0  0
  7  9  2  0  0  0  0
  8 11  1  0  0  0  0
 10  9  1  0  0  0  0
 10  1  1  0  0  0  0
 12  8  1  0  0  0  0
 13 19  1  1  0  0  0
 13 14  1  0  0  0  0
 14 15  1  0  0  0  0
 14 20  1  6  0  0  0
 15 22  1  6  0  0  0
 16 15  1  0  0  0  0
 17  1  1  6  0  0  0
 17 13  1  0  0  0  0
 17 16  1  0  0  0  0
 18 19  1  0  0  0  0
 21 20  1  0  0  0  0
 23 22  1  0  0  0  0
 24 23  1  0  0  0  0
 25  5  1  0  0  0  0
 26 25  1  0  0  0  0
M  END
>  <minimizedAffinity>
-5.82429028

$$$$

 OpenBabel09122223163D

 26 28  0  0  1  0  0  0  0  0999 V2000
    3.5660   -4.5800    4.8790 N   0  0  0  0  0  0  0  0  0  0  0  0
    3.2890   -3.7610    3.8170 C   0  0  0  0  0  3  0  0  0  0  0  0
    2.7540   -2.6210    4.2020 N   0  0  0  0  0  0  0  0  0  0  0  0
    2.7080   -2.6970    5.5760 C   0  0  0  0  0  0  0  0  0  0  0  0
    2.2740   -1.8470    6.5860 C   0  0  0  0  0  0  0  0  0  0  0  0
    2.3500   -2.2070    7.8810 N   0  0  0  0  0  0  0  0  0  0  0  0
    2.8610   -3.4180    8.1660 C   0  0  0  0  0  0  0  0  0  0  0  0
    2.9300   -3.7550    9.4860 N   0  0  0  0  0  0  0  0  0  0  0  0
    3.3110   -4.3290    7.2870 N   0  0  0  0  0  0  0  0  0  0  0  0
    3.2100   -3.9100    6.0170 C   0  0  0  0  0  0  0  0  0  0  0  0
    3.3320   -4.6450    9.7260 H   0  0  0  0  0  0  0  0  0  0  0  0
    2.6280   -3.0800   10.1660 H   0  0  0  0  0  0  0  0  0  0  0  0
    3.0150   -6.9710    4.5040 C   0  0  2  0  0  3  0  0  0  0  0  0
    3.8670   -8.0780    3.9000 C   0  0  1  0  0  3  0  0  0  0  0  0
    4.9240   -7.3030    3.1190 C   0  0  2  0  0  3  0  0  0  0  0  0
    5.0750   -6.0120    3.7690 O   0  0  0  0  0  0  0  0  0  0  0  0
    4.0920   -5.9310    4.8280 C   0  0  1  0  0  3  0  0  0  0  0  0
    0.9650   -6.9870    5.7050 C   0  0  0  0  0  1  0  0  0  0  0  0
    2.3180   -7.4280    5.6640 O   0  0  0  0  0  0  0  0  0  0  0  0
    4.4990   -8.8260    4.9480 O   0  0  0  0  0  0  0  0  0  0  0  0
    3.8510   -8.8870    5.6800 H   0  0  0  0  0  0  0  0  0  0  0  0
    4.5110   -7.0380    1.6690 C   0  0  0  0  0  2  0  0  0  0  0  0
    4.8580   -5.7050    1.3010 O   0  0  0  0  0  0  0  0  0  0  0  0
    4.6530   -5.1360    2.0690 H   0  0  0  0  0  0  0  0  0  0  0  0
    1.7430   -0.6080    6.3630 O   0  0  0  0  0  0  0  0  0  0  0  0
    1.5690   -0.3190    7.2760 H   0  0  0  0  0  0  0  0  0  0  0  0
  1 10  1  0  0  0  0
  2  3  2  0  0  0  0
  2  1  1  0  0  0  0
  3  4  1  0  0  0  0
  4 10  2  0  0  0  0
  4  5  1  0  0  0  0
  5  6  2  0  0  0  0
  6  7  1  0  0  0  0
  7  8  1  0  0  0  0
  8 11  1  0  0  0  0
  8 12  1  0  0  0  0
  9  7  2  0  0  0  0
 10  9  1  0  0  0  0
 13 17  1  0  0  0  0
 13 19  1  1  0  0  0
 14 13  1  0  0  0  0
 14 20  1  1  0  0  0
 15 22  1  6  0  0  0
 15 16  1  0  0  0  0
 15 14  1  0  0  0  0
 16 17  1  0  0  0  0
 17  1  1  6  0  0  0
 19 18  1  0  0  0  0
 20 21  1  0  0  0  0
 23 22  1  0  0  0  0
 23 24  1  0  0  0  0
 25  5  1  0  0  0  0
 25 26  1  0  0  0  0
M  END
>  <minimizedAffinity>
-5.76865387

$$$$

 OpenBabel09122223163D

 26 28  0  0  1  0  0  0  0  0999 V2000
    4.6980   -6.0400    3.0980 N   0  0  0  0  0  0  0  0  0  0  0  0
    5.5280   -5.3430    2.2610 C   0  0  0  0  0  3  0  0  0  0  0  0
    5.7040   -5.9650    1.1140 N   0  0  0  0  0  0  0  0  0  0  0  0
    4.9320   -7.1020    1.2030 C   0  0  0  0  0  0  0  0  0  0  0  0
    4.6650   -8.1690    0.3560 C   0  0  0  0  0  0  0  0  0  0  0  0
    3.8470   -9.1710    0.7310 N   0  0  0  0  0  0  0  0  0  0  0  0
    3.2970   -9.1040    1.9560 C   0  0  0  0  0  0  0  0  0  0  0  0
    2.4700  -10.1300    2.3090 N   0  0  0  0  0  0  0  0  0  0  0  0
    3.4750   -8.1330    2.8670 N   0  0  0  0  0  0  0  0  0  0  0  0
    4.2970   -7.1660    2.4320 C   0  0  0  0  0  0  0  0  0  0  0  0
    2.0250  -10.0890    3.2100 H   0  0  0  0  0  0  0  0  0  0  0  0
    2.2950  -10.8540    1.6350 H   0  0  0  0  0  0  0  0  0  0  0  0
    3.1010   -4.7920    4.5290 C   0  0  2  0  0  3  0  0  0  0  0  0
    2.5950   -5.1180    5.9270 C   0  0  1  0  0  3  0  0  0  0  0  0
    2.8790   -6.6120    6.0510 C   0  0  2  0  0  3  0  0  0  0  0  0
    4.0030   -6.9060    5.1770 O   0  0  0  0  0  0  0  0  0  0  0  0
    4.3360   -5.6950    4.4590 C   0  0  1  0  0  3  0  0  0  0  0  0
    2.2620   -2.5840    4.2800 C   0  0  0  0  0  1  0  0  0  0  0  0
    3.4180   -3.4050    4.4030 O   0  0  0  0  0  0  0  0  0  0  0  0
    3.3690   -4.4010    6.8990 O   0  0  0  0  0  0  0  0  0  0  0  0
    3.5640   -3.5230    6.5120 H   0  0  0  0  0  0  0  0  0  0  0  0
    1.7050   -7.4770    5.5890 C   0  0  0  0  0  2  0  0  0  0  0  0
    2.1600   -8.7940    5.2880 O   0  0  0  0  0  0  0  0  0  0  0  0
    3.0170   -8.6990    4.8290 H   0  0  0  0  0  0  0  0  0  0  0  0
    5.1950   -8.2980   -0.8980 O   0  0  0  0  0  0  0  0  0  0  0  0
    4.7890   -9.1350   -1.1800 H   0  0  0  0  0  0  0  0  0  0  0  0
  2  1  1  0  0  0  0
  3  4  1  0  0  0  0
  3  2  2  0  0  0  0
  4 10  2  0  0  0  0
  5  6  2  0  0  0  0
  5  4  1  0  0  0  0
  6  7  1  0  0  0  0
  7  8  1  0  0  0  0
  7  9  2  0  0  0  0
  8 11  1  0  0  0  0
 10  9  1  0  0  0  0
 10  1  1  0  0  0  0
 12  8  1  0  0  0  0
 13 19  1  1  0  0  0
 13 14  1  0  0  0  0
 14 15  1  0  0  0  0
 14 20  1  1  0  0  0
 15 22  1  6  0  0  0
 16 15  1  0  0  0  0
 17  1  1  6  0  0  0
 17 13  1  0  0  0  0
 17 16  1  0  0  0  0
 18 19  1  0  0  0  0
 21 20  1  0  0  0  0
 23 22  1  0  0  0  0
 24 23  1  0  0  0  0
 25  5  1  0  0  0  0
 26 25  1  0  0  0  0
M  END
>  <minimizedAffinity>
-5.63265419

$$$$

 OpenBabel09122223163D

 26 28  0  0  1  0  0  0  0  0999 V2000
    4.6040   -6.1720    3.0020 N   0  0  0  0  0  0  0  0  0  0  0  0
    5.6400   -5.4640    2.4520 C   0  0  0  0  0  3  0  0  0  0  0  0
    6.0140   -4.4640    3.2220 N   0  0  0  0  0  0  0  0  0  0  0  0
    5.2020   -4.5450    4.3310 C   0  0  0  0  0  0  0  0  0  0  0  0
    5.0780   -3.8140    5.5050 C   0  0  0  0  0  0  0  0  0  0  0  0
    4.1580   -4.1360    6.4350 N   0  0  0  0  0  0  0  0  0  0  0  0
    3.3620   -5.1920    6.1880 C   0  0  0  0  0  0  0  0  0  0  0  0
    2.4430   -5.4980    7.1480 N   0  0  0  0  0  0  0  0  0  0  0  0
    3.3800   -5.9760    5.0970 N   0  0  0  0  0  0  0  0  0  0  0  0
    4.3170   -5.6040    4.2130 C   0  0  0  0  0  0  0  0  0  0  0  0
    1.8540   -6.3000    6.9980 H   0  0  0  0  0  0  0  0  0  0  0  0
    2.4280   -4.9470    7.9870 H   0  0  0  0  0  0  0  0  0  0  0  0
    4.6150   -7.8600    1.1820 C   0  0  2  0  0  3  0  0  0  0  0  0
    4.0770   -9.2840    1.1800 C   0  0  1  0  0  3  0  0  0  0  0  0
    3.9950   -9.6180    2.6660 C   0  0  2  0  0  3  0  0  0  0  0  0
    3.8160   -8.3620    3.3760 O   0  0  0  0  0  0  0  0  0  0  0  0
    3.8950   -7.2890    2.4080 C   0  0  1  0  0  3  0  0  0  0  0  0
    5.4220   -6.8450   -0.8080 C   0  0  0  0  0  1  0  0  0  0  0  0
    4.2790   -7.1770   -0.0260 O   0  0  0  0  0  0  0  0  0  0  0  0
    2.7600   -9.3010    0.6110 O   0  0  0  0  0  0  0  0  0  0  0  0
    2.7610   -8.6490   -0.1200 H   0  0  0  0  0  0  0  0  0  0  0  0
    5.2760  -10.2640    3.1980 C   0  0  0  0  0  2  0  0  0  0  0  0
    5.8620   -9.4320    4.1960 O   0  0  0  0  0  0  0  0  0  0  0  0
    5.7720   -8.5100    3.8850 H   0  0  0  0  0  0  0  0  0  0  0  0
    5.8510   -2.7300    5.8130 O   0  0  0  0  0  0  0  0  0  0  0  0
    5.4920   -2.4940    6.6850 H   0  0  0  0  0  0  0  0  0  0  0  0
  1 10  1  0  0  0  0
  2  1  1  0  0  0  0
  2  3  2  0  0  0  0
  3  4  1  0  0  0  0
  4  5  1  0  0  0  0
  5 25  1  0  0  0  0
  5  6  2  0  0  0  0
  7  6  1  0  0  0  0
  7  8  1  0  0  0  0
  8 12  1  0  0  0  0
  9  7  2  0  0  0  0
 10  4  2  0  0  0  0
 10  9  1  0  0  0  0
 11  8  1  0  0  0  0
 13 19  1  6  0  0  0
 13 17  1  0  0  0  0
 14 20  1  1  0  0  0
 14 13  1  0  0  0  0
 14 15  1  0  0  0  0
 15 22  1  1  0  0  0
 15 16  1  0  0  0  0
 17  1  1  1  0  0  0
 17 16  1  0  0  0  0
 18 19  1  0  0  0  0
 21 20  1  0  0  0  0
 22 23  1  0  0  0  0
 24 23  1  0  0  0  0
 25 26  1  0  0  0  0
M  END
>  <minimizedAffinity>
-5.63255548

$$$$

 OpenBabel09122223163D

 26 28  0  0  1  0  0  0  0  0999 V2000
    4.5380   -5.1490    5.0380 N   0  0  0  0  0  0  0  0  0  0  0  0
    3.5420   -5.8790    5.6310 C   0  0  0  0  0  3  0  0  0  0  0  0
    3.1070   -6.8430    4.8480 N   0  0  0  0  0  0  0  0  0  0  0  0
    3.8740   -6.7490    3.7080 C   0  0  0  0  0  0  0  0  0  0  0  0
    3.9360   -7.4540    2.5130 C   0  0  0  0  0  0  0  0  0  0  0  0
    4.8130   -7.1170    1.5480 N   0  0  0  0  0  0  0  0  0  0  0  0
    5.6290   -6.0730    1.7810 C   0  0  0  0  0  0  0  0  0  0  0  0
    6.5090   -5.7560    0.7880 N   0  0  0  0  0  0  0  0  0  0  0  0
    5.6670   -5.3120    2.8870 N   0  0  0  0  0  0  0  0  0  0  0  0
    4.7720   -5.7000    3.8080 C   0  0  0  0  0  0  0  0  0  0  0  0
    7.1470   -4.9950    0.9490 H   0  0  0  0  0  0  0  0  0  0  0  0
    6.5220   -6.3270   -0.0370 H   0  0  0  0  0  0  0  0  0  0  0  0
    4.2760   -3.1220    6.4450 C   0  0  2  0  0  3  0  0  0  0  0  0
    5.2940   -2.4210    7.3330 C   0  0  1  0  0  3  0  0  0  0  0  0
    6.3400   -3.5060    7.5690 C   0  0  2  0  0  3  0  0  0  0  0  0
    6.2910   -4.4030    6.4270 O   0  0  0  0  0  0  0  0  0  0  0  0
    5.2020   -3.9770    5.5740 C   0  0  1  0  0  3  0  0  0  0  0  0
    2.4030   -1.6610    6.4090 C   0  0  0  0  0  1  0  0  0  0  0  0
    3.5150   -2.1800    5.6880 O   0  0  0  0  0  0  0  0  0  0  0  0
    5.8890   -1.3300    6.6170 O   0  0  0  0  0  0  0  0  0  0  0  0
    5.1800   -0.9310    6.0720 H   0  0  0  0  0  0  0  0  0  0  0  0
    6.0530   -4.3430    8.8180 C   0  0  0  0  0  2  0  0  0  0  0  0
    6.2350   -5.7270    8.5290 O   0  0  0  0  0  0  0  0  0  0  0  0
    5.8640   -5.8810    7.6380 H   0  0  0  0  0  0  0  0  0  0  0  0
    3.1340   -8.5200    2.2140 O   0  0  0  0  0  0  0  0  0  0  0  0
    3.4620   -8.7490    1.3280 H   0  0  0  0  0  0  0  0  0  0  0  0
  1  2  1  0  0  0  0
  3  2  2  0  0  0  0
  4 10  2  0  0  0  0
  4  3  1  0  0  0  0
  5  4  1  0  0  0  0
  6  7  1  0  0  0  0
  6  5  2  0  0  0  0
  7  9  2  0  0  0  0
  8 11  1  0  0  0  0
  8  7  1  0  0  0  0
  9 10  1  0  0  0  0
 10  1  1  0  0  0  0
 12  8  1  0  0  0  0
 13 19  1  6  0  0  0
 13 14  1  0  0  0  0
 14 20  1  6  0  0  0
 14 15  1  0  0  0  0
 15 22  1  1  0  0  0
 16 15  1  0  0  0  0
 17  1  1  1  0  0  0
 17 16  1  0  0  0  0
 17 13  1  0  0  0  0
 19 18  1  0  0  0  0
 21 20  1  0  0  0  0
 23 22  1  0  0  0  0
 24 23  1  0  0  0  0
 25  5  1  0  0  0  0
 26 25  1  0  0  0  0
M  END
>  <minimizedAffinity>
-5.62233305

$$$$

 OpenBabel09122223163D

 26 28  0  0  1  0  0  0  0  0999 V2000
    4.8920   -9.5370    3.9340 N   0  0  0  0  0  0  0  0  0  0  0  0
    5.3660  -10.6640    4.5520 C   0  0  0  0  0  3  0  0  0  0  0  0
    4.7790  -10.8710    5.7120 N   0  0  0  0  0  0  0  0  0  0  0  0
    3.8670   -9.8470    5.8380 C   0  0  0  0  0  0  0  0  0  0  0  0
    2.9360   -9.4830    6.8020 C   0  0  0  0  0  0  0  0  0  0  0  0
    2.1630   -8.3910    6.6480 N   0  0  0  0  0  0  0  0  0  0  0  0
    2.3230   -7.6630    5.5290 C   0  0  0  0  0  0  0  0  0  0  0  0
    1.5240   -6.5650    5.3980 N   0  0  0  0  0  0  0  0  0  0  0  0
    3.1840   -7.9050    4.5270 N   0  0  0  0  0  0  0  0  0  0  0  0
    3.9220   -9.0060    4.7400 C   0  0  0  0  0  0  0  0  0  0  0  0
    1.6070   -6.0190    4.5570 H   0  0  0  0  0  0  0  0  0  0  0  0
    0.8500   -6.3770    6.1180 H   0  0  0  0  0  0  0  0  0  0  0  0
    4.1990   -8.5930    1.7460 C   0  0  2  0  0  3  0  0  0  0  0  0
    4.8590   -7.5080    0.9070 C   0  0  1  0  0  3  0  0  0  0  0  0
    5.7340   -6.7810    1.9220 C   0  0  2  0  0  3  0  0  0  0  0  0
    6.0670   -7.7380    2.9630 O   0  0  0  0  0  0  0  0  0  0  0  0
    5.3520   -8.9650    2.6840 C   0  0  1  0  0  3  0  0  0  0  0  0
    2.4240  -10.0740    1.1980 C   0  0  0  0  0  1  0  0  0  0  0  0
    3.7680   -9.6860    0.9340 O   0  0  0  0  0  0  0  0  0  0  0  0
    5.6870   -8.1120   -0.0960 O   0  0  0  0  0  0  0  0  0  0  0  0
    5.2210   -8.9170   -0.4000 H   0  0  0  0  0  0  0  0  0  0  0  0
    5.0130   -5.6100    2.5940 C   0  0  0  0  0  2  0  0  0  0  0  0
    5.1440   -5.7060    4.0100 O   0  0  0  0  0  0  0  0  0  0  0  0
    5.0410   -6.6500    4.2400 H   0  0  0  0  0  0  0  0  0  0  0  0
    2.7280  -10.1770    7.9610 O   0  0  0  0  0  0  0  0  0  0  0  0
    2.0210   -9.6450    8.3650 H   0  0  0  0  0  0  0  0  0  0  0  0
  1  2  1  0  0  0  0
  1 10  1  0  0  0  0
  2  3  2  0  0  0  0
  3  4  1  0  0  0  0
  4  5  1  0  0  0  0
  5 25  1  0  0  0  0
  6  5  2  0  0  0  0
  7  6  1  0  0  0  0
  8  7  1  0  0  0  0
  8 12  1  0  0  0  0
  9 10  1  0  0  0  0
  9  7  2  0  0  0  0
 10  4  2  0  0  0  0
 11  8  1  0  0  0  0
 13 19  1  6  0  0  0
 13 17  1  0  0  0  0
 14 20  1  6  0  0  0
 14 13  1  0  0  0  0
 14 15  1  0  0  0  0
 15 22  1  1  0  0  0
 15 16  1  0  0  0  0
 17 16  1  0  0  0  0
 17  1  1  1  0  0  0
 19 18  1  0  0  0  0
 21 20  1  0  0  0  0
 22 23  1  0  0  0  0
 23 24  1  0  0  0  0
 25 26  1  0  0  0  0
M  END
>  <minimizedAffinity>
-5.55540848

$$$$
