
 OpenBabel09132204463D

 26 28  0  0  1  0  0  0  0  0999 V2000
    4.6040   -6.1720    3.0020 N   0  0  0  0  0  0  0  0  0  0  0  0
    5.6400   -5.4640    2.4520 C   0  0  0  0  0  3  0  0  0  0  0  0
    6.0140   -4.4640    3.2220 N   0  0  0  0  0  0  0  0  0  0  0  0
    5.2020   -4.5450    4.3310 C   0  0  0  0  0  0  0  0  0  0  0  0
    5.0780   -3.8140    5.5050 C   0  0  0  0  0  0  0  0  0  0  0  0
    4.1580   -4.1360    6.4350 N   0  0  0  0  0  0  0  0  0  0  0  0
    3.3620   -5.1920    6.1880 C   0  0  0  0  0  0  0  0  0  0  0  0
    2.4430   -5.4980    7.1480 N   0  0  0  0  0  0  0  0  0  0  0  0
    3.3800   -5.9760    5.0970 N   0  0  0  0  0  0  0  0  0  0  0  0
    4.3170   -5.6040    4.2130 C   0  0  0  0  0  0  0  0  0  0  0  0
    1.8540   -6.3000    6.9980 H   0  0  0  0  0  0  0  0  0  0  0  0
    2.4280   -4.9470    7.9870 H   0  0  0  0  0  0  0  0  0  0  0  0
    4.6150   -7.8600    1.1820 C   0  0  2  0  0  3  0  0  0  0  0  0
    4.0770   -9.2840    1.1800 C   0  0  1  0  0  3  0  0  0  0  0  0
    3.9950   -9.6180    2.6660 C   0  0  2  0  0  3  0  0  0  0  0  0
    3.8160   -8.3620    3.3760 O   0  0  0  0  0  0  0  0  0  0  0  0
    3.8950   -7.2890    2.4080 C   0  0  1  0  0  3  0  0  0  0  0  0
    5.4220   -6.8450   -0.8080 C   0  0  0  0  0  1  0  0  0  0  0  0
    4.2790   -7.1770   -0.0260 O   0  0  0  0  0  0  0  0  0  0  0  0
    2.7600   -9.3010    0.6110 O   0  0  0  0  0  0  0  0  0  0  0  0
    2.7610   -8.6490   -0.1200 H   0  0  0  0  0  0  0  0  0  0  0  0
    5.2760  -10.2640    3.1980 C   0  0  0  0  0  2  0  0  0  0  0  0
    5.8620   -9.4320    4.1960 O   0  0  0  0  0  0  0  0  0  0  0  0
    5.7720   -8.5100    3.8850 H   0  0  0  0  0  0  0  0  0  0  0  0
    5.8510   -2.7300    5.8130 O   0  0  0  0  0  0  0  0  0  0  0  0
    5.4920   -2.4940    6.6850 H   0  0  0  0  0  0  0  0  0  0  0  0
  1 10  1  0  0  0  0
  2  1  1  0  0  0  0
  2  3  2  0  0  0  0
  3  4  1  0  0  0  0
  4  5  1  0  0  0  0
  5 25  1  0  0  0  0
  5  6  2  0  0  0  0
  7  6  1  0  0  0  0
  7  8  1  0  0  0  0
  8 12  1  0  0  0  0
  9  7  2  0  0  0  0
 10  4  2  0  0  0  0
 10  9  1  0  0  0  0
 11  8  1  0  0  0  0
 13 19  1  6  0  0  0
 13 17  1  0  0  0  0
 14 20  1  1  0  0  0
 14 13  1  0  0  0  0
 14 15  1  0  0  0  0
 15 22  1  1  0  0  0
 15 16  1  0  0  0  0
 17  1  1  1  0  0  0
 17 16  1  0  0  0  0
 18 19  1  0  0  0  0
 21 20  1  0  0  0  0
 22 23  1  0  0  0  0
 24 23  1  0  0  0  0
 25 26  1  0  0  0  0
M  END
>  <minimizedAffinity>
-5.63255548

$$$$
