
 OpenBabel09132204463D

 33 35  0  0  1  0  0  0  0  0999 V2000
   -2.0590    1.0230   -3.4680 N   0  0  0  0  0  2  0  0  0  0  0  0
   -1.8050    2.0890   -4.5760 C   0  0  0  0  0  0  0  0  0  0  0  0
   -2.4770    2.3230   -5.5740 O   0  0  0  0  0  0  0  0  0  0  0  0
   -0.3300    2.4860   -4.5620 C   0  0  1  0  0  3  0  0  0  0  0  0
    0.0750    2.9450   -3.3690 C   0  0  1  0  0  3  0  0  0  0  0  0
   -0.9510    3.1710   -2.3500 C   0  0  0  0  0  0  0  0  0  0  0  0
   -0.8780    4.2770   -1.4930 C   0  0  0  0  0  3  0  0  0  0  0  0
   -1.9290    4.5490   -0.6260 C   0  0  0  0  0  3  0  0  0  0  0  0
   -3.0680    3.7520   -0.6500 C   0  0  0  0  0  3  0  0  0  0  0  0
   -3.1500    2.6450   -1.5070 C   0  0  0  0  0  3  0  0  0  0  0  0
   -2.0550    2.2580   -2.3110 C   0  0  0  0  0  0  0  0  0  0  0  0
    0.4340    1.4540   -5.3650 C   0  0  2  0  0  3  0  0  0  0  0  0
    1.7530    1.6420   -5.3840 N   0  0  0  0  0  0  0  0  0  0  0  0
    2.4280    2.4140   -6.6560 S   0  0  0  0  0  0  0  0  0  0  0  0
    3.4740    3.3260   -6.2590 O   0  0  0  0  0  0  0  0  0  0  0  0
    2.6090    1.5720   -7.8270 O   0  0  0  0  0  0  0  0  0  0  0  0
    1.0480    3.4280   -7.1600 C   0  0  0  0  0  0  0  0  0  0  0  0
    0.9570    5.2390   -7.1460 C   0  0  0  0  0  3  0  0  0  0  0  0
   -0.6400    6.0380   -7.3990 C   0  0  0  0  0  3  0  0  0  0  0  0
   -2.1440    5.0180   -7.6710 C   0  0  0  0  0  3  0  0  0  0  0  0
   -2.0500    3.2120   -7.5470 C   0  0  0  0  0  3  0  0  0  0  0  0
   -0.4440    2.4270   -7.3270 C   0  0  0  0  0  0  0  0  0  0  0  0
   -0.2900    1.1970   -6.5980 N   0  0  0  0  0  0  0  0  0  0  0  0
    2.1850    1.9260   -4.5130 H   0  0  0  0  0  0  0  0  0  0  0  0
   -1.1700    0.6900   -6.4760 H   0  0  0  0  0  0  0  0  0  0  0  0
    1.4010    2.9580   -2.9940 O   0  0  0  0  0  0  0  0  0  0  0  0
    1.4740    3.3190   -2.0890 H   0  0  0  0  0  0  0  0  0  0  0  0
   -2.2330   -1.0770   -3.3230 C   0  0  0  0  0  1  0  0  0  0  0  0
   -3.2640   -2.3030   -4.1220 C   0  0  0  0  0  2  0  0  0  0  0  0
   -5.4510   -2.7740   -5.3920 C   0  0  0  0  0  1  0  0  0  0  0  0
   -4.4350   -1.7490   -4.9580 N   0  0  0  0  0  4  0  0  0  0  0  0
   -5.1310   -0.6330   -4.1990 C   0  0  0  0  0  1  0  0  0  0  0  0
   -4.0990   -1.2760   -5.8160 H   0  0  0  0  0  0  0  0  0  0  0  0
  1 11  1  0  0  0  0
  2  1  1  0  0  0  0
  3  2  2  0  0  0  0
  4  2  1  1  0  0  0
  4  5  1  0  0  0  0
  5 26  1  1  0  0  0
  5  6  1  0  0  0  0
  6 11  2  0  0  0  0
  6  7  1  0  0  0  0
  7  8  2  0  0  0  0
  9  8  1  0  0  0  0
 10  9  2  0  0  0  0
 11 10  1  0  0  0  0
 12 23  1  6  0  0  0
 12  4  1  0  0  0  0
 13 12  1  0  0  0  0
 13 24  1  0  0  0  0
 14 15  2  0  0  0  0
 14 13  1  0  0  0  0
 16 14  2  0  0  0  0
 17 18  1  0  0  0  0
 17 14  1  0  0  0  0
 19 18  2  0  0  0  0
 20 21  2  0  0  0  0
 20 19  1  0  0  0  0
 21 22  1  0  0  0  0
 22 17  2  0  0  0  0
 22 23  1  0  0  0  0
 23 25  1  0  0  0  0
 26 27  1  0  0  0  0
 29 28  1  0  0  0  0
 30 31  1  0  0  0  0
 31 32  1  0  0  0  0
 31 29  1  0  0  0  0
 33 31  1  0  0  0  0
M  END
>  <minimizedAffinity>
107.022781

$$$$
