
 OpenBabel09132200083D

 33 36  0  0  1  0  0  0  0  0999 V2000
    1.1100    5.7820   -8.3760 N   0  0  0  0  0  0  0  0  0  0  0  0
    0.7770    5.7550   -6.8530 C   0  0  0  0  0  0  0  0  0  0  0  0
    1.3180    6.3770   -5.9460 O   0  0  0  0  0  0  0  0  0  0  0  0
    0.0230    4.4680   -6.5260 C   0  0  1  0  0  3  0  0  0  0  0  0
   -1.0950    4.3200   -7.2520 C   0  0  1  0  0  3  0  0  0  0  0  0
   -1.5150    5.4520   -8.0800 C   0  0  0  0  0  0  0  0  0  0  0  0
   -2.8720    5.7810   -8.2070 C   0  0  0  0  0  3  0  0  0  0  0  0
   -3.2420    6.9360   -8.8840 C   0  0  0  0  0  3  0  0  0  0  0  0
   -2.2620    7.7860   -9.3860 C   0  0  0  0  0  3  0  0  0  0  0  0
   -0.9030    7.4650   -9.2590 C   0  0  0  0  0  3  0  0  0  0  0  0
   -0.4880    6.2400   -8.6930 C   0  0  0  0  0  0  0  0  0  0  0  0
    1.0460    3.3690   -6.3320 C   0  0  2  0  0  3  0  0  0  0  0  0
    0.5410    2.2270   -5.8640 N   0  0  0  0  0  0  0  0  0  0  0  0
    0.6280    1.9170   -4.2620 S   0  0  0  0  0  0  0  0  0  0  0  0
   -0.5760    1.3070   -3.7500 O   0  0  0  0  0  0  0  0  0  0  0  0
    1.9270    1.4330   -3.8260 O   0  0  0  0  0  0  0  0  0  0  0  0
    0.6450    3.5880   -3.6320 C   0  0  0  0  0  0  0  0  0  0  0  0
   -0.6080    4.3780   -2.5890 C   0  0  0  0  0  3  0  0  0  0  0  0
   -0.5400    6.1620   -2.3340 C   0  0  0  0  0  3  0  0  0  0  0  0
    0.7920    7.1520   -3.1250 C   0  0  0  0  0  3  0  0  0  0  0  0
    1.9530    6.3590   -4.2700 C   0  0  0  0  0  0  0  0  0  0  0  0
    1.8930    4.5730   -4.4880 C   0  0  0  0  0  0  0  0  0  0  0  0
    2.2370    3.9450   -5.7350 N   0  0  0  0  0  0  0  0  0  0  0  0
   -0.3500    1.9340   -6.2460 H   0  0  0  0  0  0  0  0  0  0  0  0
    2.7720    4.5560   -6.3580 H   0  0  0  0  0  0  0  0  0  0  0  0
   -1.6930    3.0940   -7.4470 O   0  0  0  0  0  0  0  0  0  0  0  0
   -2.4820    3.2090   -8.0110 H   0  0  0  0  0  0  0  0  0  0  0  0
    2.7530    5.3450   -9.6290 C   0  0  0  0  0  1  0  0  0  0  0  0
    3.6010    3.8390  -10.0970 C   0  0  0  0  0  2  0  0  0  0  0  0
    3.6670    1.2720   -9.9400 C   0  0  0  0  0  1  0  0  0  0  0  0
    3.1560    2.5630   -9.3540 N   0  0  0  0  0  4  0  0  0  0  0  0
    3.5530    2.6500   -7.8910 C   0  0  0  0  0  1  0  0  0  0  0  0
    2.1240    2.4870   -9.3140 H   0  0  0  0  0  0  0  0  0  0  0  0
  1  2  2  0  0  0  0
  2  3  1  0  0  0  0
  3 21  1  0  0  0  0
  4  2  1  6  0  0  0
  4 12  1  0  0  0  0
  5 26  1  6  0  0  0
  5  4  1  0  0  0  0
  6  5  1  0  0  0  0
  7  6  1  0  0  0  0
  8  7  2  0  0  0  0
  9 10  2  0  0  0  0
  9  8  1  0  0  0  0
 10 11  1  0  0  0  0
 11  1  1  0  0  0  0
 11  6  2  0  0  0  0
 12 13  1  1  0  0  0
 12 23  1  0  0  0  0
 13 14  1  0  0  0  0
 14 16  2  0  0  0  0
 14 15  2  0  0  0  0
 14 17  1  0  0  0  0
 17 18  1  0  0  0  0
 18 19  2  0  0  0  0
 20 19  1  0  0  0  0
 21 20  2  3  0  0  0
 22 21  1  0  0  0  0
 22 17  2  0  0  0  0
 23 22  1  0  0  0  0
 24 13  1  0  0  0  0
 25 23  1  0  0  0  0
 27 26  1  0  0  0  0
 29 28  1  0  0  0  0
 29 31  1  0  0  0  0
 30 31  1  0  0  0  0
 31 33  1  0  0  0  0
 31 32  1  0  0  0  0
M  END
>  <minimizedAffinity>
105.4645

$$$$

 OpenBabel09132200083D

 33 35  0  0  1  0  0  0  0  0999 V2000
   -2.0590    1.0230   -3.4680 N   0  0  0  0  0  2  0  0  0  0  0  0
   -1.8050    2.0890   -4.5760 C   0  0  0  0  0  0  0  0  0  0  0  0
   -2.4770    2.3230   -5.5740 O   0  0  0  0  0  0  0  0  0  0  0  0
   -0.3300    2.4860   -4.5620 C   0  0  1  0  0  3  0  0  0  0  0  0
    0.0750    2.9450   -3.3690 C   0  0  1  0  0  3  0  0  0  0  0  0
   -0.9510    3.1710   -2.3500 C   0  0  0  0  0  0  0  0  0  0  0  0
   -0.8780    4.2770   -1.4930 C   0  0  0  0  0  3  0  0  0  0  0  0
   -1.9290    4.5490   -0.6260 C   0  0  0  0  0  3  0  0  0  0  0  0
   -3.0680    3.7520   -0.6500 C   0  0  0  0  0  3  0  0  0  0  0  0
   -3.1500    2.6450   -1.5070 C   0  0  0  0  0  3  0  0  0  0  0  0
   -2.0550    2.2580   -2.3110 C   0  0  0  0  0  0  0  0  0  0  0  0
    0.4340    1.4540   -5.3650 C   0  0  2  0  0  3  0  0  0  0  0  0
    1.7530    1.6420   -5.3840 N   0  0  0  0  0  0  0  0  0  0  0  0
    2.4280    2.4140   -6.6560 S   0  0  0  0  0  0  0  0  0  0  0  0
    3.4740    3.3260   -6.2590 O   0  0  0  0  0  0  0  0  0  0  0  0
    2.6090    1.5720   -7.8270 O   0  0  0  0  0  0  0  0  0  0  0  0
    1.0480    3.4280   -7.1600 C   0  0  0  0  0  0  0  0  0  0  0  0
    0.9570    5.2390   -7.1460 C   0  0  0  0  0  3  0  0  0  0  0  0
   -0.6400    6.0380   -7.3990 C   0  0  0  0  0  3  0  0  0  0  0  0
   -2.1440    5.0180   -7.6710 C   0  0  0  0  0  3  0  0  0  0  0  0
   -2.0500    3.2120   -7.5470 C   0  0  0  0  0  3  0  0  0  0  0  0
   -0.4440    2.4270   -7.3270 C   0  0  0  0  0  0  0  0  0  0  0  0
   -0.2900    1.1970   -6.5980 N   0  0  0  0  0  0  0  0  0  0  0  0
    2.1850    1.9260   -4.5130 H   0  0  0  0  0  0  0  0  0  0  0  0
   -1.1700    0.6900   -6.4760 H   0  0  0  0  0  0  0  0  0  0  0  0
    1.4010    2.9580   -2.9940 O   0  0  0  0  0  0  0  0  0  0  0  0
    1.4740    3.3190   -2.0890 H   0  0  0  0  0  0  0  0  0  0  0  0
   -2.2330   -1.0770   -3.3230 C   0  0  0  0  0  1  0  0  0  0  0  0
   -3.2640   -2.3030   -4.1220 C   0  0  0  0  0  2  0  0  0  0  0  0
   -5.4510   -2.7740   -5.3920 C   0  0  0  0  0  1  0  0  0  0  0  0
   -4.4350   -1.7490   -4.9580 N   0  0  0  0  0  4  0  0  0  0  0  0
   -5.1310   -0.6330   -4.1990 C   0  0  0  0  0  1  0  0  0  0  0  0
   -4.0990   -1.2760   -5.8160 H   0  0  0  0  0  0  0  0  0  0  0  0
  1 11  1  0  0  0  0
  2  1  1  0  0  0  0
  3  2  2  0  0  0  0
  4  2  1  1  0  0  0
  4  5  1  0  0  0  0
  5 26  1  1  0  0  0
  5  6  1  0  0  0  0
  6 11  2  0  0  0  0
  6  7  1  0  0  0  0
  7  8  2  0  0  0  0
  9  8  1  0  0  0  0
 10  9  2  0  0  0  0
 11 10  1  0  0  0  0
 12 23  1  6  0  0  0
 12  4  1  0  0  0  0
 13 12  1  0  0  0  0
 13 24  1  0  0  0  0
 14 15  2  0  0  0  0
 14 13  1  0  0  0  0
 16 14  2  0  0  0  0
 17 18  1  0  0  0  0
 17 14  1  0  0  0  0
 19 18  2  0  0  0  0
 20 21  2  0  0  0  0
 20 19  1  0  0  0  0
 21 22  1  0  0  0  0
 22 17  2  0  0  0  0
 22 23  1  0  0  0  0
 23 25  1  0  0  0  0
 26 27  1  0  0  0  0
 29 28  1  0  0  0  0
 30 31  1  0  0  0  0
 31 32  1  0  0  0  0
 31 29  1  0  0  0  0
 33 31  1  0  0  0  0
M  END
>  <minimizedAffinity>
107.022781

$$$$

 OpenBabel09132200083D

 33 35  0  0  1  0  0  0  0  0999 V2000
   -1.7180    0.6790   -3.3280 N   0  0  0  0  0  2  0  0  0  0  0  0
   -1.7180    1.7140   -4.4930 C   0  0  0  0  0  0  0  0  0  0  0  0
   -2.4550    1.7560   -5.4720 O   0  0  0  0  0  0  0  0  0  0  0  0
   -0.3550    2.3980   -4.5580 C   0  0  1  0  0  3  0  0  0  0  0  0
   -0.0130    2.9910   -3.4050 C   0  0  1  0  0  3  0  0  0  0  0  0
   -1.0320    3.0600   -2.3560 C   0  0  0  0  0  0  0  0  0  0  0  0
   -1.1560    4.2030   -1.5540 C   0  0  0  0  0  3  0  0  0  0  0  0
   -2.2130    4.3040   -0.6570 C   0  0  0  0  0  3  0  0  0  0  0  0
   -3.1680    3.2950   -0.5970 C   0  0  0  0  0  3  0  0  0  0  0  0
   -3.0510    2.1510   -1.4000 C   0  0  0  0  0  3  0  0  0  0  0  0
   -1.9270    1.9480   -2.2300 C   0  0  0  0  0  0  0  0  0  0  0  0
    0.5760    1.4990   -5.3450 C   0  0  2  0  0  3  0  0  0  0  0  0
    1.8500    1.8910   -5.3390 N   0  0  0  0  0  0  0  0  0  0  0  0
    2.4200    2.7600   -6.6000 S   0  0  0  0  0  0  0  0  0  0  0  0
    3.3020    3.8240   -6.1850 O   0  0  0  0  0  0  0  0  0  0  0  0
    2.7520    1.9580   -7.7660 O   0  0  0  0  0  0  0  0  0  0  0  0
    0.9080    3.5470   -7.1320 C   0  0  0  0  0  0  0  0  0  0  0  0
    0.5340    5.3200   -7.1230 C   0  0  0  0  0  3  0  0  0  0  0  0
   -1.1630    5.8610   -7.4080 C   0  0  0  0  0  3  0  0  0  0  0  0
   -2.4840    4.6170   -7.7050 C   0  0  0  0  0  3  0  0  0  0  0  0
   -2.1110    2.8480   -7.5760 C   0  0  0  0  0  3  0  0  0  0  0  0
   -0.4060    2.3240   -7.3250 C   0  0  0  0  0  0  0  0  0  0  0  0
   -0.0750    1.1330   -6.5900 N   0  0  0  0  0  0  0  0  0  0  0  0
    2.2150    2.2380   -4.4610 H   0  0  0  0  0  0  0  0  0  0  0  0
   -0.8670    0.4940   -6.4840 H   0  0  0  0  0  0  0  0  0  0  0  0
    1.2940    3.2880   -3.0860 O   0  0  0  0  0  0  0  0  0  0  0  0
    1.3210    3.7040   -2.2020 H   0  0  0  0  0  0  0  0  0  0  0  0
   -1.4590   -1.4040   -3.0810 C   0  0  0  0  0  1  0  0  0  0  0  0
   -1.4540   -2.8020   -4.1980 C   0  0  0  0  0  2  0  0  0  0  0  0
    0.3730   -4.5560   -3.7420 C   0  0  0  0  0  1  0  0  0  0  0  0
   -0.0640   -3.3660   -4.5570 N   0  0  0  0  0  4  0  0  0  0  0  0
   -0.0130   -3.7160   -6.0340 C   0  0  0  0  0  1  0  0  0  0  0  0
    0.6750   -2.6460   -4.4600 H   0  0  0  0  0  0  0  0  0  0  0  0
  1 11  1  0  0  0  0
  2  1  1  0  0  0  0
  3  2  2  0  0  0  0
  4  2  1  1  0  0  0
  4  5  1  0  0  0  0
  5 26  1  1  0  0  0
  5  6  1  0  0  0  0
  6 11  2  0  0  0  0
  6  7  1  0  0  0  0
  7  8  2  0  0  0  0
  8  9  1  0  0  0  0
 10  9  2  0  0  0  0
 11 10  1  0  0  0  0
 12 23  1  6  0  0  0
 12 13  1  0  0  0  0
 12  4  1  0  0  0  0
 13 24  1  0  0  0  0
 14 15  2  0  0  0  0
 14 13  1  0  0  0  0
 16 14  2  0  0  0  0
 17 18  1  0  0  0  0
 17 14  1  0  0  0  0
 19 18  2  0  0  0  0
 20 21  2  0  0  0  0
 20 19  1  0  0  0  0
 21 22  1  0  0  0  0
 22 17  2  0  0  0  0
 22 23  1  0  0  0  0
 23 25  1  0  0  0  0
 26 27  1  0  0  0  0
 29 28  1  0  0  0  0
 31 33  1  0  0  0  0
 31 29  1  0  0  0  0
 31 30  1  0  0  0  0
 32 31  1  0  0  0  0
M  END
>  <minimizedAffinity>
107.843925

$$$$
