
 OpenBabel09092210413D

 28 31  0  0  1  0  0  0  0  0999 V2000
   -0.1770    3.7110   -4.2970 C   0  0  2  0  0  3  0  0  0  0  0  0
    0.7990    4.7040   -4.9150 C   0  0  0  0  0  2  0  0  0  0  0  0
    2.1360    4.3040   -4.6260 O   0  0  0  0  0  0  0  0  0  0  0  0
    2.3960    4.2350   -3.2750 C   0  0  0  0  0  0  0  0  0  0  0  0
    3.7420    4.3470   -2.9370 C   0  0  0  0  0  3  0  0  0  0  0  0
    4.1330    4.3460   -1.6000 C   0  0  0  0  0  3  0  0  0  0  0  0
    3.1480    4.2500   -0.6090 C   0  0  0  0  0  0  0  0  0  0  0  0
    3.3150    4.3140    0.7490 N   0  0  0  0  0  0  0  0  0  0  0  0
    2.1130    4.2820    1.2410 C   0  0  0  0  0  0  0  0  0  0  0  0
    1.1720    4.0530    0.2640 N   0  0  0  0  0  0  0  0  0  0  0  0
    1.7990    4.0910   -0.9640 C   0  0  0  0  0  0  0  0  0  0  0  0
    1.3740    4.0410   -2.3130 C   0  0  0  0  0  0  0  0  0  0  0  0
   -0.0540    3.8680   -2.7670 C   0  0  0  0  0  2  0  0  0  0  0  0
   -0.2410    3.9110    0.5760 C   0  0  0  0  0  2  0  0  0  0  0  0
   -0.4940    3.6860    2.0910 C   0  0  2  0  0  3  0  0  0  0  0  0
    0.3710    4.6950    2.8550 C   0  0  0  0  0  2  0  0  0  0  0  0
    1.7520    4.4410    2.5300 N   0  0  0  0  0  0  0  0  0  0  0  0
    2.4780    4.7970    3.1560 H   0  0  0  0  0  0  0  0  0  0  0  0
    0.0940    2.2520   -4.7160 C   0  0  0  0  0  2  0  0  0  0  0  0
   -2.1760    1.1930   -4.4010 C   0  0  0  0  0  1  0  0  0  0  0  0
   -0.7430    1.2600   -3.9200 N   0  0  0  0  0  4  0  0  0  0  0  0
   -0.1340   -0.1210   -3.8970 C   0  0  0  0  0  1  0  0  0  0  0  0
   -0.7820    1.5600   -2.9380 H   0  0  0  0  0  0  0  0  0  0  0  0
   -0.2000    2.2140    2.4570 C   0  0  0  0  0  2  0  0  0  0  0  0
   -0.4840    1.2210    1.3490 N   0  0  0  0  0  4  0  0  0  0  0  0
    0.6490    0.2840    1.0370 C   0  0  0  0  0  1  0  0  0  0  0  0
   -1.7550    0.4470    1.6250 C   0  0  0  0  0  1  0  0  0  0  0  0
   -0.6990    1.7620    0.4980 H   0  0  0  0  0  0  0  0  0  0  0  0
  1 19  1  1  0  0  0
  1 13  1  0  0  0  0
  2  3  1  0  0  0  0
  2  1  1  0  0  0  0
  3  4  1  0  0  0  0
  4  5  2  0  0  0  0
  4 12  1  0  0  0  0
  5  6  1  0  0  0  0
  6  7  2  0  0  0  0
  7  8  1  0  0  0  0
  8  9  2  0  0  0  0
  9 17  1  0  0  0  0
 10 14  1  0  0  0  0
 10  9  1  0  0  0  0
 11  7  1  0  0  0  0
 11 10  1  0  0  0  0
 12 11  2  0  0  0  0
 13 12  1  0  0  0  0
 14 15  1  0  0  0  0
 15 24  1  1  0  0  0
 15 16  1  0  0  0  0
 17 16  1  0  0  0  0
 17 18  1  0  0  0  0
 19 21  1  0  0  0  0
 20 21  1  0  0  0  0
 21 22  1  0  0  0  0
 21 23  1  0  0  0  0
 25 27  1  0  0  0  0
 25 24  1  0  0  0  0
 26 25  1  0  0  0  0
 28 25  1  0  0  0  0
M  END
>  <minimizedAffinity>
-2.54573035

$$$$
