
 OpenBabel09092210413D

 28 31  0  0  1  0  0  0  0  0999 V2000
    2.5800   -3.6070   -0.0860 C   0  0  2  0  0  3  0  0  0  0  0  0
    2.8860   -5.0120   -0.5900 C   0  0  0  0  0  2  0  0  0  0  0  0
    3.8590   -4.9470   -1.6300 O   0  0  0  0  0  0  0  0  0  0  0  0
    3.4480   -4.1890   -2.7040 C   0  0  0  0  0  0  0  0  0  0  0  0
    4.0910   -4.4850   -3.9030 C   0  0  0  0  0  3  0  0  0  0  0  0
    3.7280   -3.8260   -5.0750 C   0  0  0  0  0  3  0  0  0  0  0  0
    2.6970   -2.8800   -5.0270 C   0  0  0  0  0  0  0  0  0  0  0  0
    2.1400   -2.1910   -6.0720 N   0  0  0  0  0  0  0  0  0  0  0  0
    1.1590   -1.5170   -5.5500 C   0  0  0  0  0  0  0  0  0  0  0  0
    1.1420   -1.6260   -4.1790 N   0  0  0  0  0  0  0  0  0  0  0  0
    2.0880   -2.5570   -3.8040 C   0  0  0  0  0  0  0  0  0  0  0  0
    2.4650   -3.1740   -2.5860 C   0  0  0  0  0  0  0  0  0  0  0  0
    1.8610   -2.8740   -1.2380 C   0  0  0  0  0  2  0  0  0  0  0  0
    0.1760   -0.9100   -3.3630 C   0  0  0  0  0  2  0  0  0  0  0  0
   -0.5460    0.2170   -4.1500 C   0  0  2  0  0  3  0  0  0  0  0  0
   -0.9570   -0.3640   -5.5080 C   0  0  0  0  0  2  0  0  0  0  0  0
    0.2370   -0.7800   -6.2000 N   0  0  0  0  0  0  0  0  0  0  0  0
    0.1990   -0.9040   -7.2140 H   0  0  0  0  0  0  0  0  0  0  0  0
    3.8400   -2.8290    0.3460 C   0  0  0  0  0  2  0  0  0  0  0  0
    2.4050   -2.1270    2.3010 C   0  0  0  0  0  1  0  0  0  0  0  0
    3.5230   -1.7370    1.3580 N   0  0  0  0  0  4  0  0  0  0  0  0
    4.7380   -1.3050    2.1410 C   0  0  0  0  0  1  0  0  0  0  0  0
    3.2010   -0.8970    0.8620 H   0  0  0  0  0  0  0  0  0  0  0  0
    0.3740    1.4530   -4.2570 C   0  0  0  0  0  2  0  0  0  0  0  0
    0.2980    2.3990   -3.0770 N   0  0  0  0  0  4  0  0  0  0  0  0
    0.9440    3.7380   -3.2990 C   0  0  0  0  0  1  0  0  0  0  0  0
   -1.1310    2.5690   -2.6080 C   0  0  0  0  0  1  0  0  0  0  0  0
    0.7690    1.9420   -2.2830 H   0  0  0  0  0  0  0  0  0  0  0  0
  1 19  1  6  0  0  0
  2  1  1  0  0  0  0
  3  2  1  0  0  0  0
  4 12  1  0  0  0  0
  4  3  1  0  0  0  0
  5  4  2  0  0  0  0
  6  7  2  0  0  0  0
  6  5  1  0  0  0  0
  7 11  1  0  0  0  0
  8  9  2  0  0  0  0
  8  7  1  0  0  0  0
  9 10  1  0  0  0  0
 10 11  1  0  0  0  0
 10 14  1  0  0  0  0
 11 12  2  0  0  0  0
 12 13  1  0  0  0  0
 13  1  1  0  0  0  0
 15 24  1  6  0  0  0
 15 14  1  0  0  0  0
 16 15  1  0  0  0  0
 17  9  1  0  0  0  0
 17 16  1  0  0  0  0
 18 17  1  0  0  0  0
 19 21  1  0  0  0  0
 21 22  1  0  0  0  0
 21 20  1  0  0  0  0
 23 21  1  0  0  0  0
 24 25  1  0  0  0  0
 25 27  1  0  0  0  0
 25 28  1  0  0  0  0
 26 25  1  0  0  0  0
M  END
>  <minimizedAffinity>
-2.33153439

$$$$
