
 OpenBabel09092210413D

 28 31  0  0  1  0  0  0  0  0999 V2000
    0.2240   -4.9400    0.2690 C   0  0  2  0  0  3  0  0  0  0  0  0
    1.2250   -5.3310    1.3480 C   0  0  0  0  0  2  0  0  0  0  0  0
    2.2010   -4.3020    1.4920 O   0  0  0  0  0  0  0  0  0  0  0  0
    2.8990   -4.0570    0.3310 C   0  0  0  0  0  0  0  0  0  0  0  0
    4.1450   -3.4640    0.5180 C   0  0  0  0  0  3  0  0  0  0  0  0
    4.9740   -3.2140   -0.5730 C   0  0  0  0  0  3  0  0  0  0  0  0
    4.5390   -3.5870   -1.8510 C   0  0  0  0  0  0  0  0  0  0  0  0
    5.2320   -3.5050   -3.0310 N   0  0  0  0  0  0  0  0  0  0  0  0
    4.4620   -4.0630   -3.9160 C   0  0  0  0  0  0  0  0  0  0  0  0
    3.2300   -4.3770   -3.3900 N   0  0  0  0  0  0  0  0  0  0  0  0
    3.2630   -4.1420   -2.0310 C   0  0  0  0  0  0  0  0  0  0  0  0
    2.3770   -4.3660   -0.9500 C   0  0  0  0  0  0  0  0  0  0  0  0
    0.9930   -4.9530   -1.0690 C   0  0  0  0  0  2  0  0  0  0  0  0
    2.1710   -4.9520   -4.2040 C   0  0  0  0  0  2  0  0  0  0  0  0
    2.4560   -4.8250   -5.7250 C   0  0  2  0  0  3  0  0  0  0  0  0
    3.9160   -5.2310   -5.9530 C   0  0  0  0  0  2  0  0  0  0  0  0
    4.7570   -4.3300   -5.2040 N   0  0  0  0  0  0  0  0  0  0  0  0
    5.7420   -4.2470   -5.4630 H   0  0  0  0  0  0  0  0  0  0  0  0
   -0.4220   -3.5600    0.5090 C   0  0  0  0  0  2  0  0  0  0  0  0
   -0.2600   -1.7900    2.3010 C   0  0  0  0  0  1  0  0  0  0  0  0
   -0.5600   -3.2400    1.9910 N   0  0  0  0  0  4  0  0  0  0  0  0
   -1.9130   -3.6220    2.5390 C   0  0  0  0  0  1  0  0  0  0  0  0
    0.1200   -3.7960    2.5230 H   0  0  0  0  0  0  0  0  0  0  0  0
    2.1290   -3.3920   -6.2000 C   0  0  0  0  0  2  0  0  0  0  0  0
    1.1460   -2.6470   -5.3210 N   0  0  0  0  0  4  0  0  0  0  0  0
    1.6550   -1.3440   -4.7700 C   0  0  0  0  0  1  0  0  0  0  0  0
   -0.1750   -2.4450   -6.0320 C   0  0  0  0  0  1  0  0  0  0  0  0
    0.9120   -3.2620   -4.5280 H   0  0  0  0  0  0  0  0  0  0  0  0
  1 19  1  1  0  0  0
  1  2  1  0  0  0  0
  2  3  1  0  0  0  0
  4  5  1  0  0  0  0
  4  3  1  0  0  0  0
  6  5  2  0  0  0  0
  7  6  1  0  0  0  0
  8  7  1  0  0  0  0
  9 10  1  0  0  0  0
  9  8  2  0  0  0  0
 10 11  1  0  0  0  0
 11  7  2  0  0  0  0
 11 12  1  0  0  0  0
 12  4  2  0  0  0  0
 13 12  1  0  0  0  0
 13  1  1  0  0  0  0
 14 10  1  0  0  0  0
 15 24  1  1  0  0  0
 15 14  1  0  0  0  0
 16 15  1  0  0  0  0
 16 17  1  0  0  0  0
 17  9  1  0  0  0  0
 18 17  1  0  0  0  0
 19 21  1  0  0  0  0
 21 20  1  0  0  0  0
 21 23  1  0  0  0  0
 21 22  1  0  0  0  0
 24 25  1  0  0  0  0
 25 26  1  0  0  0  0
 25 28  1  0  0  0  0
 27 25  1  0  0  0  0
M  END
>  <minimizedAffinity>
-2.34990215

$$$$
