
 OpenBabel09092210413D

 28 31  0  0  1  0  0  0  0  0999 V2000
   -1.3470   -2.3690   -1.4260 C   0  0  2  0  0  3  0  0  0  0  0  0
   -1.4750   -3.5830   -2.3370 C   0  0  0  0  0  2  0  0  0  0  0  0
   -0.1930   -3.9310   -2.8550 O   0  0  0  0  0  0  0  0  0  0  0  0
    0.3890   -2.9150   -3.5780 C   0  0  0  0  0  0  0  0  0  0  0  0
    1.3520   -3.3320   -4.4930 C   0  0  0  0  0  3  0  0  0  0  0  0
    1.9770   -2.4070   -5.3250 C   0  0  0  0  0  3  0  0  0  0  0  0
    1.6050   -1.0590   -5.2360 C   0  0  0  0  0  0  0  0  0  0  0  0
    2.0360   -0.0170   -6.0140 N   0  0  0  0  0  0  0  0  0  0  0  0
    1.3380    1.0080   -5.6250 C   0  0  0  0  0  0  0  0  0  0  0  0
    0.5710    0.7090   -4.5230 N   0  0  0  0  0  0  0  0  0  0  0  0
    0.6670   -0.6450   -4.2780 C   0  0  0  0  0  0  0  0  0  0  0  0
    0.0480   -1.5530   -3.3860 C   0  0  0  0  0  0  0  0  0  0  0  0
   -0.9630   -1.1790   -2.3300 C   0  0  0  0  0  2  0  0  0  0  0  0
   -0.2490    1.7120   -3.8630 C   0  0  0  0  0  2  0  0  0  0  0  0
    0.1170    3.1570   -4.2960 C   0  0  2  0  0  3  0  0  0  0  0  0
    0.2610    3.1550   -5.8220 C   0  0  0  0  0  2  0  0  0  0  0  0
    1.3160    2.2380   -6.1740 N   0  0  0  0  0  0  0  0  0  0  0  0
    1.7570    2.3260   -7.0920 H   0  0  0  0  0  0  0  0  0  0  0  0
   -0.3020   -2.5570   -0.3070 C   0  0  0  0  0  2  0  0  0  0  0  0
   -0.6860   -0.7490    1.4130 C   0  0  0  0  0  1  0  0  0  0  0  0
    0.1750   -1.2290    0.2640 N   0  0  0  0  0  4  0  0  0  0  0  0
    1.6250   -1.2670    0.6800 C   0  0  0  0  0  1  0  0  0  0  0  0
    0.1150   -0.5050   -0.4630 H   0  0  0  0  0  0  0  0  0  0  0  0
    1.3910    3.6180   -3.5530 C   0  0  0  0  0  2  0  0  0  0  0  0
    1.2150    3.8080   -2.0600 N   0  0  0  0  0  4  0  0  0  0  0  0
    2.4320    4.3190   -1.3430 C   0  0  0  0  0  1  0  0  0  0  0  0
    0.0150    4.6810   -1.7610 C   0  0  0  0  0  1  0  0  0  0  0  0
    0.9650    2.8930   -1.6600 H   0  0  0  0  0  0  0  0  0  0  0  0
  1 19  1  1  0  0  0
  2  1  1  0  0  0  0
  3  2  1  0  0  0  0
  4 12  1  0  0  0  0
  4  3  1  0  0  0  0
  5  4  2  0  0  0  0
  6  7  2  0  0  0  0
  6  5  1  0  0  0  0
  7 11  1  0  0  0  0
  8  9  2  0  0  0  0
  8  7  1  0  0  0  0
  9 10  1  0  0  0  0
 10 11  1  0  0  0  0
 10 14  1  0  0  0  0
 11 12  2  0  0  0  0
 12 13  1  0  0  0  0
 13  1  1  0  0  0  0
 15 14  1  0  0  0  0
 15 24  1  1  0  0  0
 16 15  1  0  0  0  0
 17 16  1  0  0  0  0
 17  9  1  0  0  0  0
 18 17  1  0  0  0  0
 19 21  1  0  0  0  0
 21 22  1  0  0  0  0
 21 20  1  0  0  0  0
 23 21  1  0  0  0  0
 24 25  1  0  0  0  0
 25 27  1  0  0  0  0
 25 28  1  0  0  0  0
 25 26  1  0  0  0  0
M  END
>  <minimizedAffinity>
-2.3943944

$$$$
