
 OpenBabel09082221083D

 28 31  0  0  1  0  0  0  0  0999 V2000
   -1.4060    3.6540   -3.9730 C   0  0  2  0  0  3  0  0  0  0  0  0
   -1.0150    4.7560   -4.9500 C   0  0  0  0  0  2  0  0  0  0  0  0
    0.2930    4.5040   -5.4580 O   0  0  0  0  0  0  0  0  0  0  0  0
    1.2510    4.4500   -4.4710 C   0  0  0  0  0  0  0  0  0  0  0  0
    2.5480    4.7070   -4.9080 C   0  0  0  0  0  3  0  0  0  0  0  0
    3.6030    4.7360   -3.9980 C   0  0  0  0  0  3  0  0  0  0  0  0
    3.3290    4.5210   -2.6420 C   0  0  0  0  0  0  0  0  0  0  0  0
    4.2040    4.5890   -1.5890 N   0  0  0  0  0  0  0  0  0  0  0  0
    3.4710    4.4190   -0.5280 C   0  0  0  0  0  0  0  0  0  0  0  0
    2.1750    4.0970   -0.8550 N   0  0  0  0  0  0  0  0  0  0  0  0
    2.0250    4.2170   -2.2210 C   0  0  0  0  0  0  0  0  0  0  0  0
    0.9400    4.1340   -3.1260 C   0  0  0  0  0  0  0  0  0  0  0  0
   -0.4830    3.8080   -2.7460 C   0  0  0  0  0  2  0  0  0  0  0  0
    1.1790    3.7960    0.1610 C   0  0  0  0  0  2  0  0  0  0  0  0
    1.8130    3.5280    1.5530 C   0  0  2  0  0  3  0  0  0  0  0  0
    2.8620    4.6180    1.7950 C   0  0  0  0  0  2  0  0  0  0  0  0
    3.8590    4.5230    0.7580 N   0  0  0  0  0  0  0  0  0  0  0  0
    4.7740    4.9510    0.9160 H   0  0  0  0  0  0  0  0  0  0  0  0
   -1.2800    2.2380   -4.5720 C   0  0  0  0  0  2  0  0  0  0  0  0
   -2.8410    0.8530   -3.1520 C   0  0  0  0  0  1  0  0  0  0  0  0
   -1.4020    1.1530   -3.5120 N   0  0  0  0  0  4  0  0  0  0  0  0
   -0.6860   -0.1170   -3.9020 C   0  0  0  0  0  1  0  0  0  0  0  0
   -0.9490    1.4700   -2.6460 H   0  0  0  0  0  0  0  0  0  0  0  0
    2.3860    2.0940    1.5990 C   0  0  0  0  0  2  0  0  0  0  0  0
    1.3560    0.9980    1.4200 N   0  0  0  0  0  4  0  0  0  0  0  0
    1.9260   -0.3840    1.2660 C   0  0  0  0  0  1  0  0  0  0  0  0
    0.3310    1.0300    2.5330 C   0  0  0  0  0  1  0  0  0  0  0  0
    0.8130    1.2190    0.5730 H   0  0  0  0  0  0  0  0  0  0  0  0
  1 19  1  6  0  0  0
  1 13  1  0  0  0  0
  2  1  1  0  0  0  0
  3  2  1  0  0  0  0
  3  4  1  0  0  0  0
  4 12  1  0  0  0  0
  5  4  2  0  0  0  0
  5  6  1  0  0  0  0
  6  7  2  0  0  0  0
  7 11  1  0  0  0  0
  7  8  1  0  0  0  0
  8  9  2  0  0  0  0
  9 17  1  0  0  0  0
 10  9  1  0  0  0  0
 10 14  1  0  0  0  0
 11 10  1  0  0  0  0
 12 13  1  0  0  0  0
 12 11  2  0  0  0  0
 14 15  1  0  0  0  0
 15 24  1  6  0  0  0
 15 16  1  0  0  0  0
 17 18  1  0  0  0  0
 17 16  1  0  0  0  0
 19 21  1  0  0  0  0
 21 20  1  0  0  0  0
 21 23  1  0  0  0  0
 22 21  1  0  0  0  0
 25 24  1  0  0  0  0
 25 27  1  0  0  0  0
 26 25  1  0  0  0  0
 28 25  1  0  0  0  0
M  END
>  <minimizedAffinity>
-2.90234303

$$$$

 OpenBabel09082221083D

 28 31  0  0  1  0  0  0  0  0999 V2000
    2.0430   -2.7340    1.1320 C   0  0  2  0  0  3  0  0  0  0  0  0
    2.6120   -4.1290    1.3570 C   0  0  0  0  0  2  0  0  0  0  0  0
    3.9130   -4.2150    0.7830 O   0  0  0  0  0  0  0  0  0  0  0  0
    3.9210   -3.9660   -0.5710 C   0  0  0  0  0  0  0  0  0  0  0  0
    5.0070   -4.5060   -1.2540 C   0  0  0  0  0  3  0  0  0  0  0  0
    5.1050   -4.3700   -2.6370 C   0  0  0  0  0  3  0  0  0  0  0  0
    4.0850   -3.7010   -3.3230 C   0  0  0  0  0  0  0  0  0  0  0  0
    3.9520   -3.5350   -4.6770 N   0  0  0  0  0  0  0  0  0  0  0  0
    2.8050   -2.9460   -4.8360 C   0  0  0  0  0  0  0  0  0  0  0  0
    2.2470   -2.5900   -3.6300 N   0  0  0  0  0  0  0  0  0  0  0  0
    3.0180   -3.1210   -2.6180 C   0  0  0  0  0  0  0  0  0  0  0  0
    2.9130   -3.2000   -1.2080 C   0  0  0  0  0  0  0  0  0  0  0  0
    1.8020   -2.5980   -0.3860 C   0  0  0  0  0  2  0  0  0  0  0  0
    0.9920   -1.8600   -3.5500 C   0  0  0  0  0  2  0  0  0  0  0  0
    0.5780   -1.2400   -4.9120 C   0  0  2  0  0  3  0  0  0  0  0  0
    0.7820   -2.3160   -5.9850 C   0  0  0  0  0  2  0  0  0  0  0  0
    2.1770   -2.6800   -5.9980 N   0  0  0  0  0  0  0  0  0  0  0  0
    2.5560   -3.1430   -6.8270 H   0  0  0  0  0  0  0  0  0  0  0  0
    2.9730   -1.6110    1.6340 C   0  0  0  0  0  2  0  0  0  0  0  0
    5.2550   -1.5550    2.7120 C   0  0  0  0  0  1  0  0  0  0  0  0
    3.8310   -2.0570    2.8100 N   0  0  0  0  0  4  0  0  0  0  0  0
    3.2320   -1.6710    4.1400 C   0  0  0  0  0  1  0  0  0  0  0  0
    3.8870   -3.0830    2.8200 H   0  0  0  0  0  0  0  0  0  0  0  0
    1.3860    0.0510   -5.1670 C   0  0  0  0  0  2  0  0  0  0  0  0
    0.9140    1.2550   -4.3770 N   0  0  0  0  0  4  0  0  0  0  0  0
    1.5590    2.5560   -4.7660 C   0  0  0  0  0  1  0  0  0  0  0  0
   -0.5940    1.3740   -4.4180 C   0  0  0  0  0  1  0  0  0  0  0  0
    1.1250    1.0740   -3.3840 H   0  0  0  0  0  0  0  0  0  0  0  0
  1  2  1  0  0  0  0
  1 19  1  6  0  0  0
  3  2  1  0  0  0  0
  4  3  1  0  0  0  0
  5  4  2  0  0  0  0
  6  5  1  0  0  0  0
  7  6  2  0  0  0  0
  7 11  1  0  0  0  0
  8  7  1  0  0  0  0
  9  8  2  0  0  0  0
  9 10  1  0  0  0  0
 10 14  1  0  0  0  0
 10 11  1  0  0  0  0
 11 12  2  0  0  0  0
 12  4  1  0  0  0  0
 12 13  1  0  0  0  0
 13  1  1  0  0  0  0
 15 24  1  6  0  0  0
 15 14  1  0  0  0  0
 16 15  1  0  0  0  0
 17 16  1  0  0  0  0
 17  9  1  0  0  0  0
 18 17  1  0  0  0  0
 19 21  1  0  0  0  0
 20 21  1  0  0  0  0
 21 23  1  0  0  0  0
 21 22  1  0  0  0  0
 24 25  1  0  0  0  0
 25 28  1  0  0  0  0
 26 25  1  0  0  0  0
 27 25  1  0  0  0  0
M  END
>  <minimizedAffinity>
-2.86653137

$$$$

 OpenBabel09082221083D

 28 31  0  0  1  0  0  0  0  0999 V2000
    1.8300   -2.6740    1.0430 C   0  0  2  0  0  3  0  0  0  0  0  0
    2.3860   -4.0720    1.2790 C   0  0  0  0  0  2  0  0  0  0  0  0
    3.7060   -4.1590    0.7490 O   0  0  0  0  0  0  0  0  0  0  0  0
    3.7610   -3.9010   -0.6020 C   0  0  0  0  0  0  0  0  0  0  0  0
    4.8690   -4.4410   -1.2510 C   0  0  0  0  0  3  0  0  0  0  0  0
    5.0140   -4.2970   -2.6290 C   0  0  0  0  0  3  0  0  0  0  0  0
    4.0200   -3.6200   -3.3460 C   0  0  0  0  0  0  0  0  0  0  0  0
    3.9350   -3.4450   -4.7020 N   0  0  0  0  0  0  0  0  0  0  0  0
    2.7950   -2.8520   -4.8970 C   0  0  0  0  0  0  0  0  0  0  0  0
    2.1970   -2.5010   -3.7090 N   0  0  0  0  0  0  0  0  0  0  0  0
    2.9320   -3.0410   -2.6740 C   0  0  0  0  0  0  0  0  0  0  0  0
    2.7780   -3.1280   -1.2690 C   0  0  0  0  0  0  0  0  0  0  0  0
    1.6410   -2.5280   -0.4820 C   0  0  0  0  0  2  0  0  0  0  0  0
    0.9430   -1.7670   -3.6670 C   0  0  0  0  0  2  0  0  0  0  0  0
    0.5770   -1.1380   -5.0390 C   0  0  2  0  0  3  0  0  0  0  0  0
    0.8150   -2.2070   -6.1110 C   0  0  0  0  0  2  0  0  0  0  0  0
    2.2080   -2.5770   -6.0780 N   0  0  0  0  0  0  0  0  0  0  0  0
    2.6140   -3.0350   -6.8970 H   0  0  0  0  0  0  0  0  0  0  0  0
    2.7460   -1.5560    1.5840 C   0  0  0  0  0  2  0  0  0  0  0  0
    1.5300   -0.3460    3.4360 C   0  0  0  0  0  1  0  0  0  0  0  0
    1.9620   -0.3150    1.9860 N   0  0  0  0  0  4  0  0  0  0  0  0
    2.7130    0.9610    1.6930 C   0  0  0  0  0  1  0  0  0  0  0  0
    1.1010   -0.2610    1.4290 H   0  0  0  0  0  0  0  0  0  0  0  0
    1.3980    0.1530   -5.2570 C   0  0  0  0  0  2  0  0  0  0  0  0
    0.9790    1.3200   -4.3870 N   0  0  0  0  0  4  0  0  0  0  0  0
    1.6780    2.6150   -4.6910 C   0  0  0  0  0  1  0  0  0  0  0  0
   -0.5230    1.5060   -4.4150 C   0  0  0  0  0  1  0  0  0  0  0  0
    1.1820    1.0650   -3.4100 H   0  0  0  0  0  0  0  0  0  0  0  0
  1  2  1  0  0  0  0
  1 19  1  6  0  0  0
  3  2  1  0  0  0  0
  4  3  1  0  0  0  0
  5  4  1  0  0  0  0
  6  5  2  0  0  0  0
  7 11  2  0  0  0  0
  7  6  1  0  0  0  0
  8  7  1  0  0  0  0
  9  8  2  0  0  0  0
  9 10  1  0  0  0  0
 10 14  1  0  0  0  0
 10 11  1  0  0  0  0
 11 12  1  0  0  0  0
 12  4  2  0  0  0  0
 12 13  1  0  0  0  0
 13  1  1  0  0  0  0
 15 24  1  6  0  0  0
 15 14  1  0  0  0  0
 16 17  1  0  0  0  0
 16 15  1  0  0  0  0
 17  9  1  0  0  0  0
 18 17  1  0  0  0  0
 19 21  1  0  0  0  0
 21 20  1  0  0  0  0
 22 21  1  0  0  0  0
 23 21  1  0  0  0  0
 24 25  1  0  0  0  0
 25 28  1  0  0  0  0
 26 25  1  0  0  0  0
 27 25  1  0  0  0  0
M  END
>  <minimizedAffinity>
-2.65029502

$$$$

 OpenBabel09082221083D

 28 31  0  0  1  0  0  0  0  0999 V2000
   -0.1770    3.7110   -4.2970 C   0  0  2  0  0  3  0  0  0  0  0  0
    0.7990    4.7040   -4.9150 C   0  0  0  0  0  2  0  0  0  0  0  0
    2.1360    4.3040   -4.6260 O   0  0  0  0  0  0  0  0  0  0  0  0
    2.3960    4.2350   -3.2750 C   0  0  0  0  0  0  0  0  0  0  0  0
    3.7420    4.3470   -2.9370 C   0  0  0  0  0  3  0  0  0  0  0  0
    4.1330    4.3460   -1.6000 C   0  0  0  0  0  3  0  0  0  0  0  0
    3.1480    4.2500   -0.6090 C   0  0  0  0  0  0  0  0  0  0  0  0
    3.3150    4.3140    0.7490 N   0  0  0  0  0  0  0  0  0  0  0  0
    2.1130    4.2820    1.2410 C   0  0  0  0  0  0  0  0  0  0  0  0
    1.1720    4.0530    0.2640 N   0  0  0  0  0  0  0  0  0  0  0  0
    1.7990    4.0910   -0.9640 C   0  0  0  0  0  0  0  0  0  0  0  0
    1.3740    4.0410   -2.3130 C   0  0  0  0  0  0  0  0  0  0  0  0
   -0.0540    3.8680   -2.7670 C   0  0  0  0  0  2  0  0  0  0  0  0
   -0.2410    3.9110    0.5760 C   0  0  0  0  0  2  0  0  0  0  0  0
   -0.4940    3.6860    2.0910 C   0  0  2  0  0  3  0  0  0  0  0  0
    0.3710    4.6950    2.8550 C   0  0  0  0  0  2  0  0  0  0  0  0
    1.7520    4.4410    2.5300 N   0  0  0  0  0  0  0  0  0  0  0  0
    2.4780    4.7970    3.1560 H   0  0  0  0  0  0  0  0  0  0  0  0
    0.0940    2.2520   -4.7160 C   0  0  0  0  0  2  0  0  0  0  0  0
   -2.1760    1.1930   -4.4010 C   0  0  0  0  0  1  0  0  0  0  0  0
   -0.7430    1.2600   -3.9200 N   0  0  0  0  0  4  0  0  0  0  0  0
   -0.1340   -0.1210   -3.8970 C   0  0  0  0  0  1  0  0  0  0  0  0
   -0.7820    1.5600   -2.9380 H   0  0  0  0  0  0  0  0  0  0  0  0
   -0.2000    2.2140    2.4570 C   0  0  0  0  0  2  0  0  0  0  0  0
   -0.4840    1.2210    1.3490 N   0  0  0  0  0  4  0  0  0  0  0  0
    0.6490    0.2840    1.0370 C   0  0  0  0  0  1  0  0  0  0  0  0
   -1.7550    0.4470    1.6250 C   0  0  0  0  0  1  0  0  0  0  0  0
   -0.6990    1.7620    0.4980 H   0  0  0  0  0  0  0  0  0  0  0  0
  1 19  1  1  0  0  0
  1 13  1  0  0  0  0
  2  3  1  0  0  0  0
  2  1  1  0  0  0  0
  3  4  1  0  0  0  0
  4  5  2  0  0  0  0
  4 12  1  0  0  0  0
  5  6  1  0  0  0  0
  6  7  2  0  0  0  0
  7  8  1  0  0  0  0
  8  9  2  0  0  0  0
  9 17  1  0  0  0  0
 10 14  1  0  0  0  0
 10  9  1  0  0  0  0
 11  7  1  0  0  0  0
 11 10  1  0  0  0  0
 12 11  2  0  0  0  0
 13 12  1  0  0  0  0
 14 15  1  0  0  0  0
 15 24  1  1  0  0  0
 15 16  1  0  0  0  0
 17 16  1  0  0  0  0
 17 18  1  0  0  0  0
 19 21  1  0  0  0  0
 20 21  1  0  0  0  0
 21 22  1  0  0  0  0
 21 23  1  0  0  0  0
 25 27  1  0  0  0  0
 25 24  1  0  0  0  0
 26 25  1  0  0  0  0
 28 25  1  0  0  0  0
M  END
>  <minimizedAffinity>
-2.54573035

$$$$

 OpenBabel09082221083D

 28 31  0  0  1  0  0  0  0  0999 V2000
    4.4500   -3.5510   -4.1700 C   0  0  2  0  0  3  0  0  0  0  0  0
    5.1170   -4.8820   -4.4900 C   0  0  0  0  0  2  0  0  0  0  0  0
    4.3590   -5.9470   -3.9210 O   0  0  0  0  0  0  0  0  0  0  0  0
    4.2370   -5.8490   -2.5530 C   0  0  0  0  0  0  0  0  0  0  0  0
    3.9690   -7.0530   -1.9070 C   0  0  0  0  0  3  0  0  0  0  0  0
    3.8750   -7.0990   -0.5180 C   0  0  0  0  0  3  0  0  0  0  0  0
    4.0750   -5.9200    0.2110 C   0  0  0  0  0  0  0  0  0  0  0  0
    4.1080   -5.7710    1.5730 N   0  0  0  0  0  0  0  0  0  0  0  0
    4.4250   -4.5260    1.7700 C   0  0  0  0  0  0  0  0  0  0  0  0
    4.4580   -3.8190    0.5910 N   0  0  0  0  0  0  0  0  0  0  0  0
    4.3000   -4.7050   -0.4540 C   0  0  0  0  0  0  0  0  0  0  0  0
    4.3540   -4.6150   -1.8660 C   0  0  0  0  0  0  0  0  0  0  0  0
    4.5850   -3.3460   -2.6470 C   0  0  0  0  0  2  0  0  0  0  0  0
    4.7260   -2.3900    0.5600 C   0  0  0  0  0  2  0  0  0  0  0  0
    4.6020   -1.7320    1.9610 C   0  0  2  0  0  3  0  0  0  0  0  0
    5.3350   -2.6360    2.9580 C   0  0  0  0  0  2  0  0  0  0  0  0
    4.6960   -3.9290    2.9470 N   0  0  0  0  0  0  0  0  0  0  0  0
    4.8400   -4.5540    3.7430 H   0  0  0  0  0  0  0  0  0  0  0  0
    2.9670   -3.4970   -4.5930 C   0  0  0  0  0  2  0  0  0  0  0  0
    1.9500   -1.5030   -5.7600 C   0  0  0  0  0  1  0  0  0  0  0  0
    2.3750   -2.1040   -4.4380 N   0  0  0  0  0  4  0  0  0  0  0  0
    1.2280   -2.0710   -3.4570 C   0  0  0  0  0  1  0  0  0  0  0  0
    3.0870   -1.4730   -4.0500 H   0  0  0  0  0  0  0  0  0  0  0  0
    3.1120   -1.5100    2.3040 C   0  0  0  0  0  2  0  0  0  0  0  0
    2.3280   -0.7590    1.2460 N   0  0  0  0  0  4  0  0  0  0  0  0
    1.1110   -1.4790    0.7360 C   0  0  0  0  0  1  0  0  0  0  0  0
    1.9640    0.6300    1.7230 C   0  0  0  0  0  1  0  0  0  0  0  0
    2.9620   -0.5940    0.4510 H   0  0  0  0  0  0  0  0  0  0  0  0
  1 19  1  1  0  0  0
  1 13  1  0  0  0  0
  2  1  1  0  0  0  0
  2  3  1  0  0  0  0
  3  4  1  0  0  0  0
  4  5  2  0  0  0  0
  4 12  1  0  0  0  0
  5  6  1  0  0  0  0
  6  7  2  0  0  0  0
  7  8  1  0  0  0  0
  8  9  2  0  0  0  0
  9 17  1  0  0  0  0
 10  9  1  0  0  0  0
 11  7  1  0  0  0  0
 11 10  1  0  0  0  0
 12 11  2  0  0  0  0
 13 12  1  0  0  0  0
 14 10  1  0  0  0  0
 14 15  1  0  0  0  0
 15 24  1  1  0  0  0
 15 16  1  0  0  0  0
 17 16  1  0  0  0  0
 17 18  1  0  0  0  0
 19 21  1  0  0  0  0
 20 21  1  0  0  0  0
 21 23  1  0  0  0  0
 21 22  1  0  0  0  0
 25 27  1  0  0  0  0
 25 24  1  0  0  0  0
 26 25  1  0  0  0  0
 28 25  1  0  0  0  0
M  END
>  <minimizedAffinity>
-2.522578

$$$$

 OpenBabel09082221083D

 28 31  0  0  1  0  0  0  0  0999 V2000
   -0.2210   -0.2170   -3.8800 C   0  0  2  0  0  3  0  0  0  0  0  0
   -1.1600   -0.4690   -5.0530 C   0  0  0  0  0  2  0  0  0  0  0  0
   -1.7550   -1.7570   -4.9220 O   0  0  0  0  0  0  0  0  0  0  0  0
   -0.8290   -2.7760   -4.8920 C   0  0  0  0  0  0  0  0  0  0  0  0
   -1.3260   -4.0220   -5.2650 C   0  0  0  0  0  3  0  0  0  0  0  0
   -0.4780   -5.1260   -5.3280 C   0  0  0  0  0  3  0  0  0  0  0  0
    0.8790   -4.9520   -5.0290 C   0  0  0  0  0  0  0  0  0  0  0  0
    1.8820   -5.8820   -5.1120 N   0  0  0  0  0  0  0  0  0  0  0  0
    2.9730   -5.2300   -4.8390 C   0  0  0  0  0  0  0  0  0  0  0  0
    2.7050   -3.9410   -4.4380 N   0  0  0  0  0  0  0  0  0  0  0  0
    1.3580   -3.7010   -4.6100 C   0  0  0  0  0  0  0  0  0  0  0  0
    0.5140   -2.5710   -4.4900 C   0  0  0  0  0  0  0  0  0  0  0  0
    0.9570   -1.2000   -4.0430 C   0  0  0  0  0  2  0  0  0  0  0  0
    3.7600   -3.0330   -4.0160 C   0  0  0  0  0  2  0  0  0  0  0  0
    5.0970   -3.7690   -3.7300 C   0  0  2  0  0  3  0  0  0  0  0  0
    5.3350   -4.7510   -4.8820 C   0  0  0  0  0  2  0  0  0  0  0  0
    4.2380   -5.6870   -4.9100 N   0  0  0  0  0  0  0  0  0  0  0  0
    4.3650   -6.5770   -5.3960 H   0  0  0  0  0  0  0  0  0  0  0  0
   -0.8980   -0.4060   -2.5070 C   0  0  0  0  0  2  0  0  0  0  0  0
   -0.6160    1.4190   -0.7870 C   0  0  0  0  0  1  0  0  0  0  0  0
   -0.0510    0.1410   -1.3680 N   0  0  0  0  0  4  0  0  0  0  0  0
    0.1720   -0.8750   -0.2750 C   0  0  0  0  0  1  0  0  0  0  0  0
    0.8850    0.3750   -1.7220 H   0  0  0  0  0  0  0  0  0  0  0  0
    5.0360   -4.4440   -2.3420 C   0  0  0  0  0  2  0  0  0  0  0  0
    4.2700   -3.6610   -1.2950 N   0  0  0  0  0  4  0  0  0  0  0  0
    3.1470   -4.4170   -0.6400 C   0  0  0  0  0  1  0  0  0  0  0  0
    5.2050   -3.0890   -0.2520 C   0  0  0  0  0  1  0  0  0  0  0  0
    3.8730   -2.8320   -1.7590 H   0  0  0  0  0  0  0  0  0  0  0  0
  1 19  1  1  0  0  0
  2  3  1  0  0  0  0
  2  1  1  0  0  0  0
  3  4  1  0  0  0  0
  4 12  1  0  0  0  0
  5  4  2  0  0  0  0
  6  5  1  0  0  0  0
  6  7  2  0  0  0  0
  7 11  1  0  0  0  0
  8  7  1  0  0  0  0
  8  9  2  0  0  0  0
  9 10  1  0  0  0  0
 10 14  1  0  0  0  0
 11 12  2  0  0  0  0
 11 10  1  0  0  0  0
 12 13  1  0  0  0  0
 13  1  1  0  0  0  0
 14 15  1  0  0  0  0
 15 24  1  1  0  0  0
 16 15  1  0  0  0  0
 17 16  1  0  0  0  0
 17  9  1  0  0  0  0
 18 17  1  0  0  0  0
 19 21  1  0  0  0  0
 21 20  1  0  0  0  0
 21 22  1  0  0  0  0
 23 21  1  0  0  0  0
 24 25  1  0  0  0  0
 25 26  1  0  0  0  0
 25 27  1  0  0  0  0
 28 25  1  0  0  0  0
M  END
>  <minimizedAffinity>
-2.4223938

$$$$

 OpenBabel09082221083D

 28 31  0  0  1  0  0  0  0  0999 V2000
    1.6790    0.3590    2.1390 C   0  0  2  0  0  3  0  0  0  0  0  0
    1.9290   -0.3600    3.4580 C   0  0  0  0  0  2  0  0  0  0  0  0
    3.2720   -0.8360    3.4990 O   0  0  0  0  0  0  0  0  0  0  0  0
    3.5640   -1.7090    2.4750 C   0  0  0  0  0  0  0  0  0  0  0  0
    4.6330   -2.5640    2.7300 C   0  0  0  0  0  3  0  0  0  0  0  0
    4.9960   -3.5320    1.7960 C   0  0  0  0  0  3  0  0  0  0  0  0
    4.2550   -3.6390    0.6130 C   0  0  0  0  0  0  0  0  0  0  0  0
    4.3960   -4.5680   -0.3850 N   0  0  0  0  0  0  0  0  0  0  0  0
    3.4250   -4.3270   -1.2130 C   0  0  0  0  0  0  0  0  0  0  0  0
    2.7400   -3.1830   -0.8720 N   0  0  0  0  0  0  0  0  0  0  0  0
    3.2090   -2.7410    0.3480 C   0  0  0  0  0  0  0  0  0  0  0  0
    2.8450   -1.7170    1.2540 C   0  0  0  0  0  0  0  0  0  0  0  0
    1.7380   -0.7160    1.0340 C   0  0  0  0  0  2  0  0  0  0  0  0
    1.6500   -2.6700   -1.6850 C   0  0  0  0  0  2  0  0  0  0  0  0
    1.6040   -3.3170   -3.0950 C   0  0  2  0  0  3  0  0  0  0  0  0
    1.7900   -4.8270   -2.9120 C   0  0  0  0  0  2  0  0  0  0  0  0
    3.0720   -5.0520   -2.2930 N   0  0  0  0  0  0  0  0  0  0  0  0
    3.4980   -5.9790   -2.3670 H   0  0  0  0  0  0  0  0  0  0  0  0
    2.7000    1.4810    1.8570 C   0  0  0  0  0  2  0  0  0  0  0  0
    0.8540    2.8390    0.7970 C   0  0  0  0  0  1  0  0  0  0  0  0
    2.2830    2.3550    0.6820 N   0  0  0  0  0  4  0  0  0  0  0  0
    3.2150    3.5240    0.4740 C   0  0  0  0  0  1  0  0  0  0  0  0
    2.3330    1.8060   -0.1850 H   0  0  0  0  0  0  0  0  0  0  0  0
    2.6720   -2.6660   -4.0030 C   0  0  0  0  0  2  0  0  0  0  0  0
    2.1190   -1.9990   -5.2460 N   0  0  0  0  0  4  0  0  0  0  0  0
    1.2170   -2.8670   -6.0790 C   0  0  0  0  0  1  0  0  0  0  0  0
    1.4330   -0.6940   -4.9020 C   0  0  0  0  0  1  0  0  0  0  0  0
    2.9210   -1.7150   -5.8270 H   0  0  0  0  0  0  0  0  0  0  0  0
  1 19  1  6  0  0  0
  1  2  1  0  0  0  0
  2  3  1  0  0  0  0
  4  5  1  0  0  0  0
  4  3  1  0  0  0  0
  6  5  2  0  0  0  0
  7  6  1  0  0  0  0
  8  7  1  0  0  0  0
  9 10  1  0  0  0  0
  9  8  2  0  0  0  0
 10 11  1  0  0  0  0
 11  7  2  0  0  0  0
 11 12  1  0  0  0  0
 12  4  2  0  0  0  0
 13 12  1  0  0  0  0
 13  1  1  0  0  0  0
 14 10  1  0  0  0  0
 15 24  1  6  0  0  0
 15 16  1  0  0  0  0
 15 14  1  0  0  0  0
 16 17  1  0  0  0  0
 17  9  1  0  0  0  0
 18 17  1  0  0  0  0
 21 20  1  0  0  0  0
 21 19  1  0  0  0  0
 22 21  1  0  0  0  0
 23 21  1  0  0  0  0
 25 27  1  0  0  0  0
 25 24  1  0  0  0  0
 26 25  1  0  0  0  0
 28 25  1  0  0  0  0
M  END
>  <minimizedAffinity>
-2.41862249

$$$$

 OpenBabel09082221083D

 28 31  0  0  1  0  0  0  0  0999 V2000
   -1.3470   -2.3690   -1.4260 C   0  0  2  0  0  3  0  0  0  0  0  0
   -1.4750   -3.5830   -2.3370 C   0  0  0  0  0  2  0  0  0  0  0  0
   -0.1930   -3.9310   -2.8550 O   0  0  0  0  0  0  0  0  0  0  0  0
    0.3890   -2.9150   -3.5780 C   0  0  0  0  0  0  0  0  0  0  0  0
    1.3520   -3.3320   -4.4930 C   0  0  0  0  0  3  0  0  0  0  0  0
    1.9770   -2.4070   -5.3250 C   0  0  0  0  0  3  0  0  0  0  0  0
    1.6050   -1.0590   -5.2360 C   0  0  0  0  0  0  0  0  0  0  0  0
    2.0360   -0.0170   -6.0140 N   0  0  0  0  0  0  0  0  0  0  0  0
    1.3380    1.0080   -5.6250 C   0  0  0  0  0  0  0  0  0  0  0  0
    0.5710    0.7090   -4.5230 N   0  0  0  0  0  0  0  0  0  0  0  0
    0.6670   -0.6450   -4.2780 C   0  0  0  0  0  0  0  0  0  0  0  0
    0.0480   -1.5530   -3.3860 C   0  0  0  0  0  0  0  0  0  0  0  0
   -0.9630   -1.1790   -2.3300 C   0  0  0  0  0  2  0  0  0  0  0  0
   -0.2490    1.7120   -3.8630 C   0  0  0  0  0  2  0  0  0  0  0  0
    0.1170    3.1570   -4.2960 C   0  0  2  0  0  3  0  0  0  0  0  0
    0.2610    3.1550   -5.8220 C   0  0  0  0  0  2  0  0  0  0  0  0
    1.3160    2.2380   -6.1740 N   0  0  0  0  0  0  0  0  0  0  0  0
    1.7570    2.3260   -7.0920 H   0  0  0  0  0  0  0  0  0  0  0  0
   -0.3020   -2.5570   -0.3070 C   0  0  0  0  0  2  0  0  0  0  0  0
   -0.6860   -0.7490    1.4130 C   0  0  0  0  0  1  0  0  0  0  0  0
    0.1750   -1.2290    0.2640 N   0  0  0  0  0  4  0  0  0  0  0  0
    1.6250   -1.2670    0.6800 C   0  0  0  0  0  1  0  0  0  0  0  0
    0.1150   -0.5050   -0.4630 H   0  0  0  0  0  0  0  0  0  0  0  0
    1.3910    3.6180   -3.5530 C   0  0  0  0  0  2  0  0  0  0  0  0
    1.2150    3.8080   -2.0600 N   0  0  0  0  0  4  0  0  0  0  0  0
    2.4320    4.3190   -1.3430 C   0  0  0  0  0  1  0  0  0  0  0  0
    0.0150    4.6810   -1.7610 C   0  0  0  0  0  1  0  0  0  0  0  0
    0.9650    2.8930   -1.6600 H   0  0  0  0  0  0  0  0  0  0  0  0
  1 19  1  1  0  0  0
  2  1  1  0  0  0  0
  3  2  1  0  0  0  0
  4 12  1  0  0  0  0
  4  3  1  0  0  0  0
  5  4  2  0  0  0  0
  6  7  2  0  0  0  0
  6  5  1  0  0  0  0
  7 11  1  0  0  0  0
  8  9  2  0  0  0  0
  8  7  1  0  0  0  0
  9 10  1  0  0  0  0
 10 11  1  0  0  0  0
 10 14  1  0  0  0  0
 11 12  2  0  0  0  0
 12 13  1  0  0  0  0
 13  1  1  0  0  0  0
 15 14  1  0  0  0  0
 15 24  1  1  0  0  0
 16 15  1  0  0  0  0
 17 16  1  0  0  0  0
 17  9  1  0  0  0  0
 18 17  1  0  0  0  0
 19 21  1  0  0  0  0
 21 22  1  0  0  0  0
 21 20  1  0  0  0  0
 23 21  1  0  0  0  0
 24 25  1  0  0  0  0
 25 27  1  0  0  0  0
 25 28  1  0  0  0  0
 25 26  1  0  0  0  0
M  END
>  <minimizedAffinity>
-2.3943944

$$$$

 OpenBabel09082221083D

 28 31  0  0  1  0  0  0  0  0999 V2000
    0.2240   -4.9400    0.2690 C   0  0  2  0  0  3  0  0  0  0  0  0
    1.2250   -5.3310    1.3480 C   0  0  0  0  0  2  0  0  0  0  0  0
    2.2010   -4.3020    1.4920 O   0  0  0  0  0  0  0  0  0  0  0  0
    2.8990   -4.0570    0.3310 C   0  0  0  0  0  0  0  0  0  0  0  0
    4.1450   -3.4640    0.5180 C   0  0  0  0  0  3  0  0  0  0  0  0
    4.9740   -3.2140   -0.5730 C   0  0  0  0  0  3  0  0  0  0  0  0
    4.5390   -3.5870   -1.8510 C   0  0  0  0  0  0  0  0  0  0  0  0
    5.2320   -3.5050   -3.0310 N   0  0  0  0  0  0  0  0  0  0  0  0
    4.4620   -4.0630   -3.9160 C   0  0  0  0  0  0  0  0  0  0  0  0
    3.2300   -4.3770   -3.3900 N   0  0  0  0  0  0  0  0  0  0  0  0
    3.2630   -4.1420   -2.0310 C   0  0  0  0  0  0  0  0  0  0  0  0
    2.3770   -4.3660   -0.9500 C   0  0  0  0  0  0  0  0  0  0  0  0
    0.9930   -4.9530   -1.0690 C   0  0  0  0  0  2  0  0  0  0  0  0
    2.1710   -4.9520   -4.2040 C   0  0  0  0  0  2  0  0  0  0  0  0
    2.4560   -4.8250   -5.7250 C   0  0  2  0  0  3  0  0  0  0  0  0
    3.9160   -5.2310   -5.9530 C   0  0  0  0  0  2  0  0  0  0  0  0
    4.7570   -4.3300   -5.2040 N   0  0  0  0  0  0  0  0  0  0  0  0
    5.7420   -4.2470   -5.4630 H   0  0  0  0  0  0  0  0  0  0  0  0
   -0.4220   -3.5600    0.5090 C   0  0  0  0  0  2  0  0  0  0  0  0
   -0.2600   -1.7900    2.3010 C   0  0  0  0  0  1  0  0  0  0  0  0
   -0.5600   -3.2400    1.9910 N   0  0  0  0  0  4  0  0  0  0  0  0
   -1.9130   -3.6220    2.5390 C   0  0  0  0  0  1  0  0  0  0  0  0
    0.1200   -3.7960    2.5230 H   0  0  0  0  0  0  0  0  0  0  0  0
    2.1290   -3.3920   -6.2000 C   0  0  0  0  0  2  0  0  0  0  0  0
    1.1460   -2.6470   -5.3210 N   0  0  0  0  0  4  0  0  0  0  0  0
    1.6550   -1.3440   -4.7700 C   0  0  0  0  0  1  0  0  0  0  0  0
   -0.1750   -2.4450   -6.0320 C   0  0  0  0  0  1  0  0  0  0  0  0
    0.9120   -3.2620   -4.5280 H   0  0  0  0  0  0  0  0  0  0  0  0
  1 19  1  1  0  0  0
  1  2  1  0  0  0  0
  2  3  1  0  0  0  0
  4  5  1  0  0  0  0
  4  3  1  0  0  0  0
  6  5  2  0  0  0  0
  7  6  1  0  0  0  0
  8  7  1  0  0  0  0
  9 10  1  0  0  0  0
  9  8  2  0  0  0  0
 10 11  1  0  0  0  0
 11  7  2  0  0  0  0
 11 12  1  0  0  0  0
 12  4  2  0  0  0  0
 13 12  1  0  0  0  0
 13  1  1  0  0  0  0
 14 10  1  0  0  0  0
 15 24  1  1  0  0  0
 15 14  1  0  0  0  0
 16 15  1  0  0  0  0
 16 17  1  0  0  0  0
 17  9  1  0  0  0  0
 18 17  1  0  0  0  0
 19 21  1  0  0  0  0
 21 20  1  0  0  0  0
 21 23  1  0  0  0  0
 21 22  1  0  0  0  0
 24 25  1  0  0  0  0
 25 26  1  0  0  0  0
 25 28  1  0  0  0  0
 27 25  1  0  0  0  0
M  END
>  <minimizedAffinity>
-2.34990215

$$$$

 OpenBabel09082221083D

 28 31  0  0  1  0  0  0  0  0999 V2000
    2.5800   -3.6070   -0.0860 C   0  0  2  0  0  3  0  0  0  0  0  0
    2.8860   -5.0120   -0.5900 C   0  0  0  0  0  2  0  0  0  0  0  0
    3.8590   -4.9470   -1.6300 O   0  0  0  0  0  0  0  0  0  0  0  0
    3.4480   -4.1890   -2.7040 C   0  0  0  0  0  0  0  0  0  0  0  0
    4.0910   -4.4850   -3.9030 C   0  0  0  0  0  3  0  0  0  0  0  0
    3.7280   -3.8260   -5.0750 C   0  0  0  0  0  3  0  0  0  0  0  0
    2.6970   -2.8800   -5.0270 C   0  0  0  0  0  0  0  0  0  0  0  0
    2.1400   -2.1910   -6.0720 N   0  0  0  0  0  0  0  0  0  0  0  0
    1.1590   -1.5170   -5.5500 C   0  0  0  0  0  0  0  0  0  0  0  0
    1.1420   -1.6260   -4.1790 N   0  0  0  0  0  0  0  0  0  0  0  0
    2.0880   -2.5570   -3.8040 C   0  0  0  0  0  0  0  0  0  0  0  0
    2.4650   -3.1740   -2.5860 C   0  0  0  0  0  0  0  0  0  0  0  0
    1.8610   -2.8740   -1.2380 C   0  0  0  0  0  2  0  0  0  0  0  0
    0.1760   -0.9100   -3.3630 C   0  0  0  0  0  2  0  0  0  0  0  0
   -0.5460    0.2170   -4.1500 C   0  0  2  0  0  3  0  0  0  0  0  0
   -0.9570   -0.3640   -5.5080 C   0  0  0  0  0  2  0  0  0  0  0  0
    0.2370   -0.7800   -6.2000 N   0  0  0  0  0  0  0  0  0  0  0  0
    0.1990   -0.9040   -7.2140 H   0  0  0  0  0  0  0  0  0  0  0  0
    3.8400   -2.8290    0.3460 C   0  0  0  0  0  2  0  0  0  0  0  0
    2.4050   -2.1270    2.3010 C   0  0  0  0  0  1  0  0  0  0  0  0
    3.5230   -1.7370    1.3580 N   0  0  0  0  0  4  0  0  0  0  0  0
    4.7380   -1.3050    2.1410 C   0  0  0  0  0  1  0  0  0  0  0  0
    3.2010   -0.8970    0.8620 H   0  0  0  0  0  0  0  0  0  0  0  0
    0.3740    1.4530   -4.2570 C   0  0  0  0  0  2  0  0  0  0  0  0
    0.2980    2.3990   -3.0770 N   0  0  0  0  0  4  0  0  0  0  0  0
    0.9440    3.7380   -3.2990 C   0  0  0  0  0  1  0  0  0  0  0  0
   -1.1310    2.5690   -2.6080 C   0  0  0  0  0  1  0  0  0  0  0  0
    0.7690    1.9420   -2.2830 H   0  0  0  0  0  0  0  0  0  0  0  0
  1 19  1  6  0  0  0
  2  1  1  0  0  0  0
  3  2  1  0  0  0  0
  4 12  1  0  0  0  0
  4  3  1  0  0  0  0
  5  4  2  0  0  0  0
  6  7  2  0  0  0  0
  6  5  1  0  0  0  0
  7 11  1  0  0  0  0
  8  9  2  0  0  0  0
  8  7  1  0  0  0  0
  9 10  1  0  0  0  0
 10 11  1  0  0  0  0
 10 14  1  0  0  0  0
 11 12  2  0  0  0  0
 12 13  1  0  0  0  0
 13  1  1  0  0  0  0
 15 24  1  6  0  0  0
 15 14  1  0  0  0  0
 16 15  1  0  0  0  0
 17  9  1  0  0  0  0
 17 16  1  0  0  0  0
 18 17  1  0  0  0  0
 19 21  1  0  0  0  0
 21 22  1  0  0  0  0
 21 20  1  0  0  0  0
 23 21  1  0  0  0  0
 24 25  1  0  0  0  0
 25 27  1  0  0  0  0
 25 28  1  0  0  0  0
 26 25  1  0  0  0  0
M  END
>  <minimizedAffinity>
-2.33153439

$$$$
