REMARK  Name = 
REMARK  8 active torsions:
REMARK  status: ('A' for Active; 'I' for Inactive)
REMARK    1  A    between atoms: C_1  and  N_2
REMARK    2  A    between atoms: N_2  and  C_3
REMARK    3  A    between atoms: N_2  and  C_4
REMARK    4  A    between atoms: C_4  and  C_5
REMARK    5  A    between atoms: C_19  and  C_20
REMARK    6  A    between atoms: C_20  and  N_21
REMARK    7  A    between atoms: N_21  and  C_22
REMARK    8  A    between atoms: N_21  and  C_23
REMARK                            x       y       z     vdW  Elec       q    Type
REMARK                         _______ _______ _______ _____ _____    ______ ____
ROOT
ATOM      1  C   UNL     1      -2.176  -0.719   0.079  0.00  0.00    +0.076 C 
ATOM      2  C   UNL     1      -1.549   0.652   0.297  0.00  0.00    +0.238 C 
ATOM      3  O   UNL     1      -0.701   0.615   1.442  0.00  0.00    -0.491 OA
ATOM      4  C   UNL     1      -1.369   0.264   2.594  0.00  0.00    +0.126 A 
ATOM      5  C   UNL     1      -0.755   0.684   3.771  0.00  0.00    +0.048 A 
ATOM      6  C   UNL     1      -1.357   0.439   5.003  0.00  0.00    +0.033 A 
ATOM      7  C   UNL     1      -2.594  -0.217   5.031  0.00  0.00    +0.091 A 
ATOM      8  N   UNL     1      -3.382  -0.476   6.122  0.00  0.00    -0.214 NA
ATOM      9  C   UNL     1      -4.467  -1.004   5.639  0.00  0.00    +0.197 A 
ATOM     10  N   UNL     1      -4.360  -1.234   4.287  0.00  0.00    -0.311 N 
ATOM     11  C   UNL     1      -3.180  -0.676   3.841  0.00  0.00    +0.077 A 
ATOM     12  C   UNL     1      -2.572  -0.485   2.577  0.00  0.00    +0.020 A 
ATOM     13  C   UNL     1      -3.140  -0.954   1.261  0.00  0.00    +0.053 C 
ATOM     14  C   UNL     1      -5.422  -1.878   3.531  0.00  0.00    +0.135 C 
ATOM     15  C   UNL     1      -6.466  -2.572   4.447  0.00  0.00    +0.071 C 
ATOM     16  C   UNL     1      -6.803  -1.595   5.579  0.00  0.00    +0.114 C 
ATOM     17  N   UNL     1      -5.592  -1.318   6.311  0.00  0.00    -0.314 N 
ATOM     18  H   UNL     1      -5.666  -0.943   7.259  0.00  0.00    +0.149 HD
ENDROOT
BRANCH   1  19
ATOM     19  C   UNL     1      -1.137  -1.856  -0.006  0.00  0.00    +0.138 C 
BRANCH  19  21
ATOM     20  C   UNL     1       1.182  -1.237  -0.788  0.00  0.00    +0.190 C 
ATOM     21  N   UNL     1      -0.202  -1.693  -1.196  0.00  0.00    +0.231 N 
ATOM     22  C   UNL     1      -0.113  -2.944  -2.035  0.00  0.00    +0.190 C 
ATOM     23  H   UNL     1      -0.572  -0.967  -1.822  0.00  0.00    +0.203 HD
ENDBRANCH  19  21
ENDBRANCH   1  19
BRANCH  15  24
ATOM     24  C   UNL     1      -5.910  -3.926   4.941  0.00  0.00    +0.137 C 
BRANCH  24  25
ATOM     25  N   UNL     1      -6.751  -4.601   6.005  0.00  0.00    +0.231 N 
ATOM     26  C   UNL     1      -8.137  -4.981   5.565  0.00  0.00    +0.190 C 
ATOM     27  C   UNL     1      -6.031  -5.797   6.589  0.00  0.00    +0.190 C 
ATOM     28  H   UNL     1      -6.832  -3.946   6.796  0.00  0.00    +0.203 HD
ENDBRANCH  24  25
ENDBRANCH  15  24
TORSDOF 4
