@<TRIPOS>MOLECULE
*****
 25 28 0 0 0
SMALL
GASTEIGER

@<TRIPOS>ATOM
      1 C           0.0000    0.0000    0.0000 C.3     1  UNL11       0.0897
      2 N           0.0000    0.0000    0.0000 N.3     1  UNL11      -0.2702
      3 C           0.0000    0.0000    0.0000 C.3     1  UNL11       0.0897
      4 C           0.0000    0.0000    0.0000 C.3     1  UNL11       0.0762
      5 C           0.0000    0.0000    0.0000 C.3     1  UNL11       0.0642
      6 C           0.0000    0.0000    0.0000 C.3     1  UNL11       0.2070
      7 O           0.0000    0.0000    0.0000 O.3     1  UNL11      -0.4757
      8 C           0.0000    0.0000    0.0000 C.ar    1  UNL11       0.1360
      9 C           0.0000    0.0000    0.0000 C.ar    1  UNL11       0.0382
     10 C           0.0000    0.0000    0.0000 C.ar    1  UNL11       0.0238
     11 C           0.0000    0.0000    0.0000 C.ar    1  UNL11       0.0998
     12 N           0.0000    0.0000    0.0000 N.ar    1  UNL11      -0.2124
     13 C           0.0000    0.0000    0.0000 C.ar    1  UNL11       0.2175
     14 N           0.0000    0.0000    0.0000 N.ar    1  UNL11      -0.2985
     15 C           0.0000    0.0000    0.0000 C.ar    1  UNL11       0.0788
     16 C           0.0000    0.0000    0.0000 C.ar    1  UNL11       0.0292
     17 C           0.0000    0.0000    0.0000 C.3     1  UNL11       0.0361
     18 C           0.0000    0.0000    0.0000 C.3     1  UNL11       0.1119
     19 C           0.0000    0.0000    0.0000 C.3     1  UNL11       0.0603
     20 C           0.0000    0.0000    0.0000 C.3     1  UNL11       0.0758
     21 N           0.0000    0.0000    0.0000 N.3     1  UNL11      -0.2702
     22 C           0.0000    0.0000    0.0000 C.3     1  UNL11       0.0897
     23 C           0.0000    0.0000    0.0000 C.3     1  UNL11       0.0897
     24 C           0.0000    0.0000    0.0000 C.3     1  UNL11       0.1186
     25 N           0.0000    0.0000    0.0000 N.pl3   1  UNL11      -0.2051
@<TRIPOS>BOND
     1     1     2    1
     2     2     3    1
     3     2     4    1
     4     4     5    1
     5     5     6    1
     6     6     7    1
     7     7     8    1
     8     8     9   ar
     9     9    10   ar
    10    10    11   ar
    11    11    12   ar
    12    12    13   ar
    13    13    14   ar
    14    14    15   ar
    15    11    15   ar
    16    15    16   ar
    17     8    16   ar
    18    16    17    1
    19     5    17    1
    20    14    18    1
    21    18    19    1
    22    19    20    1
    23    20    21    1
    24    21    22    1
    25    21    23    1
    26    19    24    1
    27    24    25    1
    28    13    25    1
