
 OpenBabel09092210413D

 28 31  0  0  1  0  0  0  0  0999 V2000
    1.9670   -2.7030    1.1560 C   0  0  2  0  0  3  0  0  0  0  0  0
    2.5390   -4.0940    1.3960 C   0  0  0  0  0  2  0  0  0  0  0  0
    3.8500   -4.1750    0.8410 O   0  0  0  0  0  0  0  0  0  0  0  0
    3.8760   -3.9310   -0.5140 C   0  0  0  0  0  0  0  0  0  0  0  0
    4.9760   -4.4680   -1.1780 C   0  0  0  0  0  3  0  0  0  0  0  0
    5.0930   -4.3380   -2.5600 C   0  0  0  0  0  3  0  0  0  0  0  0
    4.0790   -3.6770   -3.2640 C   0  0  0  0  0  0  0  0  0  0  0  0
    3.9660   -3.5180   -4.6210 N   0  0  0  0  0  0  0  0  0  0  0  0
    2.8170   -2.9360   -4.7990 C   0  0  0  0  0  0  0  0  0  0  0  0
    2.2400   -2.5780   -3.6040 N   0  0  0  0  0  0  0  0  0  0  0  0
    2.9990   -3.1000   -2.5780 C   0  0  0  0  0  0  0  0  0  0  0  0
    2.8740   -3.1740   -1.1690 C   0  0  0  0  0  0  0  0  0  0  0  0
    1.7470   -2.5750   -0.3660 C   0  0  0  0  0  2  0  0  0  0  0  0
    0.9800   -1.8550   -3.5450 C   0  0  0  0  0  2  0  0  0  0  0  0
    0.5820   -1.2430   -4.9160 C   0  0  2  0  0  3  0  0  0  0  0  0
    0.8080   -2.3220   -5.9810 C   0  0  0  0  0  2  0  0  0  0  0  0
    2.2050   -2.6790   -5.9720 N   0  0  0  0  0  0  0  0  0  0  0  0
    2.5990   -3.1430   -6.7930 H   0  0  0  0  0  0  0  0  0  0  0  0
    2.8830   -1.5720    1.6670 C   0  0  0  0  0  2  0  0  0  0  0  0
    5.1460   -1.4970    2.7840 C   0  0  0  0  0  1  0  0  0  0  0  0
    3.7230   -2.0070    2.8600 N   0  0  0  0  0  4  0  0  0  0  0  0
    3.0990   -1.6170    4.1770 C   0  0  0  0  0  1  0  0  0  0  0  0
    3.7850   -3.0320    2.8760 H   0  0  0  0  0  0  0  0  0  0  0  0
    1.3870    0.0520   -5.1640 C   0  0  0  0  0  2  0  0  0  0  0  0
    0.9050    1.2530   -4.3770 N   0  0  0  0  0  4  0  0  0  0  0  0
    1.5570    2.5540   -4.7510 C   0  0  0  0  0  1  0  0  0  0  0  0
   -0.6020    1.3750   -4.4410 C   0  0  0  0  0  1  0  0  0  0  0  0
    1.1000    1.0680   -3.3820 H   0  0  0  0  0  0  0  0  0  0  0  0
  1  2  1  0  0  0  0
  1 19  1  6  0  0  0
  3  2  1  0  0  0  0
  4  3  1  0  0  0  0
  5  4  2  0  0  0  0
  6  5  1  0  0  0  0
  7 11  1  0  0  0  0
  7  6  2  0  0  0  0
  8  7  1  0  0  0  0
  9  8  2  0  0  0  0
  9 10  1  0  0  0  0
 10 14  1  0  0  0  0
 10 11  1  0  0  0  0
 11 12  2  0  0  0  0
 12  4  1  0  0  0  0
 12 13  1  0  0  0  0
 13  1  1  0  0  0  0
 15 24  1  6  0  0  0
 15 14  1  0  0  0  0
 16 17  1  0  0  0  0
 16 15  1  0  0  0  0
 17  9  1  0  0  0  0
 18 17  1  0  0  0  0
 19 21  1  0  0  0  0
 20 21  1  0  0  0  0
 21 23  1  0  0  0  0
 21 22  1  0  0  0  0
 24 25  1  0  0  0  0
 25 28  1  0  0  0  0
 26 25  1  0  0  0  0
 27 25  1  0  0  0  0
M  END
>  <minimizedAffinity>
-2.7410028

$$$$
