
 OpenBabel09082221253D

 28 31  0  0  1  0  0  0  0  0999 V2000
    1.9670   -2.7030    1.1560 C   0  0  2  0  0  3  0  0  0  0  0  0
    2.5390   -4.0940    1.3960 C   0  0  0  0  0  2  0  0  0  0  0  0
    3.8500   -4.1750    0.8410 O   0  0  0  0  0  0  0  0  0  0  0  0
    3.8760   -3.9310   -0.5140 C   0  0  0  0  0  0  0  0  0  0  0  0
    4.9760   -4.4680   -1.1780 C   0  0  0  0  0  3  0  0  0  0  0  0
    5.0930   -4.3380   -2.5600 C   0  0  0  0  0  3  0  0  0  0  0  0
    4.0790   -3.6770   -3.2640 C   0  0  0  0  0  0  0  0  0  0  0  0
    3.9660   -3.5180   -4.6210 N   0  0  0  0  0  0  0  0  0  0  0  0
    2.8170   -2.9360   -4.7990 C   0  0  0  0  0  0  0  0  0  0  0  0
    2.2400   -2.5780   -3.6040 N   0  0  0  0  0  0  0  0  0  0  0  0
    2.9990   -3.1000   -2.5780 C   0  0  0  0  0  0  0  0  0  0  0  0
    2.8740   -3.1740   -1.1690 C   0  0  0  0  0  0  0  0  0  0  0  0
    1.7470   -2.5750   -0.3660 C   0  0  0  0  0  2  0  0  0  0  0  0
    0.9800   -1.8550   -3.5450 C   0  0  0  0  0  2  0  0  0  0  0  0
    0.5820   -1.2430   -4.9160 C   0  0  2  0  0  3  0  0  0  0  0  0
    0.8080   -2.3220   -5.9810 C   0  0  0  0  0  2  0  0  0  0  0  0
    2.2050   -2.6790   -5.9720 N   0  0  0  0  0  0  0  0  0  0  0  0
    2.5990   -3.1430   -6.7930 H   0  0  0  0  0  0  0  0  0  0  0  0
    2.8830   -1.5720    1.6670 C   0  0  0  0  0  2  0  0  0  0  0  0
    5.1460   -1.4970    2.7840 C   0  0  0  0  0  1  0  0  0  0  0  0
    3.7230   -2.0070    2.8600 N   0  0  0  0  0  4  0  0  0  0  0  0
    3.0990   -1.6170    4.1770 C   0  0  0  0  0  1  0  0  0  0  0  0
    3.7850   -3.0320    2.8760 H   0  0  0  0  0  0  0  0  0  0  0  0
    1.3870    0.0520   -5.1640 C   0  0  0  0  0  2  0  0  0  0  0  0
    0.9050    1.2530   -4.3770 N   0  0  0  0  0  4  0  0  0  0  0  0
    1.5570    2.5540   -4.7510 C   0  0  0  0  0  1  0  0  0  0  0  0
   -0.6020    1.3750   -4.4410 C   0  0  0  0  0  1  0  0  0  0  0  0
    1.1000    1.0680   -3.3820 H   0  0  0  0  0  0  0  0  0  0  0  0
  1  2  1  0  0  0  0
  1 19  1  6  0  0  0
  3  2  1  0  0  0  0
  4  3  1  0  0  0  0
  5  4  2  0  0  0  0
  6  5  1  0  0  0  0
  7 11  1  0  0  0  0
  7  6  2  0  0  0  0
  8  7  1  0  0  0  0
  9  8  2  0  0  0  0
  9 10  1  0  0  0  0
 10 14  1  0  0  0  0
 10 11  1  0  0  0  0
 11 12  2  0  0  0  0
 12  4  1  0  0  0  0
 12 13  1  0  0  0  0
 13  1  1  0  0  0  0
 15 24  1  6  0  0  0
 15 14  1  0  0  0  0
 16 17  1  0  0  0  0
 16 15  1  0  0  0  0
 17  9  1  0  0  0  0
 18 17  1  0  0  0  0
 19 21  1  0  0  0  0
 20 21  1  0  0  0  0
 21 23  1  0  0  0  0
 21 22  1  0  0  0  0
 24 25  1  0  0  0  0
 25 28  1  0  0  0  0
 26 25  1  0  0  0  0
 27 25  1  0  0  0  0
M  END
>  <minimizedAffinity>
-2.7410028

$$$$

 OpenBabel09082221253D

 28 31  0  0  1  0  0  0  0  0999 V2000
   -1.4150    3.5550   -4.1000 C   0  0  2  0  0  3  0  0  0  0  0  0
   -1.0520    4.6790   -5.0620 C   0  0  0  0  0  2  0  0  0  0  0  0
    0.2600    4.4660   -5.5750 O   0  0  0  0  0  0  0  0  0  0  0  0
    1.2220    4.4200   -4.5900 C   0  0  0  0  0  0  0  0  0  0  0  0
    2.5110    4.7150   -5.0240 C   0  0  0  0  0  3  0  0  0  0  0  0
    3.5660    4.7550   -4.1160 C   0  0  0  0  0  3  0  0  0  0  0  0
    3.3000    4.5140   -2.7620 C   0  0  0  0  0  0  0  0  0  0  0  0
    4.1740    4.5880   -1.7090 N   0  0  0  0  0  0  0  0  0  0  0  0
    3.4480    4.3860   -0.6500 C   0  0  0  0  0  0  0  0  0  0  0  0
    2.1580    4.0380   -0.9800 N   0  0  0  0  0  0  0  0  0  0  0  0
    2.0040    4.1730   -2.3440 C   0  0  0  0  0  0  0  0  0  0  0  0
    0.9200    4.0770   -3.2480 C   0  0  0  0  0  0  0  0  0  0  0  0
   -0.4940    3.7120   -2.8720 C   0  0  0  0  0  2  0  0  0  0  0  0
    1.1720    3.6980    0.0330 C   0  0  0  0  0  2  0  0  0  0  0  0
    1.8140    3.4260    1.4200 C   0  0  2  0  0  3  0  0  0  0  0  0
    2.8380    4.5380    1.6770 C   0  0  0  0  0  2  0  0  0  0  0  0
    3.8350    4.4810    0.6370 N   0  0  0  0  0  0  0  0  0  0  0  0
    4.7400    4.9280    0.8000 H   0  0  0  0  0  0  0  0  0  0  0  0
   -1.2560    2.1510   -4.7190 C   0  0  0  0  0  2  0  0  0  0  0  0
   -2.9580    0.9820   -3.2660 C   0  0  0  0  0  1  0  0  0  0  0  0
   -1.5120    1.0440   -3.7060 N   0  0  0  0  0  4  0  0  0  0  0  0
   -1.0590   -0.3080   -4.2030 C   0  0  0  0  0  1  0  0  0  0  0  0
   -0.9600    1.2240   -2.8590 H   0  0  0  0  0  0  0  0  0  0  0  0
    2.4210    2.0060    1.4450 C   0  0  0  0  0  2  0  0  0  0  0  0
    2.7480    1.4850    2.8290 N   0  0  0  0  0  4  0  0  0  0  0  0
    1.5740    1.4000    3.7630 C   0  0  0  0  0  1  0  0  0  0  0  0
    3.4670    0.1560    2.7550 C   0  0  0  0  0  1  0  0  0  0  0  0
    3.4430    2.1230    3.2430 H   0  0  0  0  0  0  0  0  0  0  0  0
  1 19  1  6  0  0  0
  1 13  1  0  0  0  0
  2  1  1  0  0  0  0
  3  2  1  0  0  0  0
  3  4  1  0  0  0  0
  4 12  1  0  0  0  0
  5  4  2  0  0  0  0
  5  6  1  0  0  0  0
  6  7  2  0  0  0  0
  7 11  1  0  0  0  0
  7  8  1  0  0  0  0
  8  9  2  0  0  0  0
  9 17  1  0  0  0  0
 10  9  1  0  0  0  0
 10 14  1  0  0  0  0
 11 10  1  0  0  0  0
 12 13  1  0  0  0  0
 12 11  2  0  0  0  0
 14 15  1  0  0  0  0
 15 24  1  6  0  0  0
 15 16  1  0  0  0  0
 17 18  1  0  0  0  0
 17 16  1  0  0  0  0
 19 21  1  0  0  0  0
 21 20  1  0  0  0  0
 21 23  1  0  0  0  0
 22 21  1  0  0  0  0
 24 25  1  0  0  0  0
 25 28  1  0  0  0  0
 25 26  1  0  0  0  0
 27 25  1  0  0  0  0
M  END
>  <minimizedAffinity>
-2.64971828

$$$$

 OpenBabel09082221253D

 28 31  0  0  1  0  0  0  0  0999 V2000
    1.6550    0.6410    2.1050 C   0  0  2  0  0  3  0  0  0  0  0  0
    1.5230    0.3020    3.5840 C   0  0  0  0  0  2  0  0  0  0  0  0
    2.8120    0.0480    4.1350 O   0  0  0  0  0  0  0  0  0  0  0  0
    3.4650   -0.9950    3.5170 C   0  0  0  0  0  0  0  0  0  0  0  0
    4.4520   -1.6010    4.2900 C   0  0  0  0  0  3  0  0  0  0  0  0
    5.1500   -2.7020    3.7990 C   0  0  0  0  0  3  0  0  0  0  0  0
    4.8260   -3.1950    2.5290 C   0  0  0  0  0  0  0  0  0  0  0  0
    5.3320   -4.3070    1.9070 N   0  0  0  0  0  0  0  0  0  0  0  0
    4.6560   -4.4130    0.8020 C   0  0  0  0  0  0  0  0  0  0  0  0
    3.8280   -3.3320    0.6080 N   0  0  0  0  0  0  0  0  0  0  0  0
    3.8620   -2.5470    1.7420 C   0  0  0  0  0  0  0  0  0  0  0  0
    3.1680   -1.3980    2.1910 C   0  0  0  0  0  0  0  0  0  0  0  0
    2.1250   -0.6490    1.4000 C   0  0  0  0  0  2  0  0  0  0  0  0
    3.0180   -3.1900   -0.5910 C   0  0  0  0  0  2  0  0  0  0  0  0
    3.4580   -4.1570   -1.7230 C   0  0  2  0  0  3  0  0  0  0  0  0
    3.6720   -5.5360   -1.0900 C   0  0  0  0  0  2  0  0  0  0  0  0
    4.7070   -5.4200   -0.0930 N   0  0  0  0  0  0  0  0  0  0  0  0
    5.1910   -6.2660    0.2130 H   0  0  0  0  0  0  0  0  0  0  0  0
    2.6400    1.7960    1.8310 C   0  0  0  0  0  2  0  0  0  0  0  0
    0.8910    2.8770    0.3670 C   0  0  0  0  0  1  0  0  0  0  0  0
    2.3490    2.5000    0.5140 N   0  0  0  0  0  4  0  0  0  0  0  0
    3.2250    3.7100    0.3010 C   0  0  0  0  0  1  0  0  0  0  0  0
    2.5630    1.8650   -0.2650 H   0  0  0  0  0  0  0  0  0  0  0  0
    4.7140   -3.5970   -2.4290 C   0  0  0  0  0  2  0  0  0  0  0  0
    4.5520   -3.3790   -3.9200 N   0  0  0  0  0  4  0  0  0  0  0  0
    4.8470   -4.5850   -4.7680 C   0  0  0  0  0  1  0  0  0  0  0  0
    3.1830   -2.8230   -4.2420 C   0  0  0  0  0  1  0  0  0  0  0  0
    5.2000   -2.6260   -4.1930 H   0  0  0  0  0  0  0  0  0  0  0  0
  1 19  1  1  0  0  0
  1  2  1  0  0  0  0
  2  3  1  0  0  0  0
  4  3  1  0  0  0  0
  4  5  1  0  0  0  0
  6  5  2  0  0  0  0
  7  6  1  0  0  0  0
  8  7  1  0  0  0  0
  9  8  2  0  0  0  0
 10  9  1  0  0  0  0
 10 11  1  0  0  0  0
 11 12  1  0  0  0  0
 11  7  2  0  0  0  0
 12  4  2  0  0  0  0
 13  1  1  0  0  0  0
 13 12  1  0  0  0  0
 14 10  1  0  0  0  0
 15 24  1  1  0  0  0
 15 16  1  0  0  0  0
 15 14  1  0  0  0  0
 16 17  1  0  0  0  0
 17 18  1  0  0  0  0
 17  9  1  0  0  0  0
 20 21  1  0  0  0  0
 21 19  1  0  0  0  0
 22 21  1  0  0  0  0
 23 21  1  0  0  0  0
 25 24  1  0  0  0  0
 26 25  1  0  0  0  0
 27 25  1  0  0  0  0
 28 25  1  0  0  0  0
M  END
>  <minimizedAffinity>
-2.42495799

$$$$

 OpenBabel09082221253D

 28 31  0  0  1  0  0  0  0  0999 V2000
    2.6660   -4.3680    0.8010 C   0  0  2  0  0  3  0  0  0  0  0  0
    3.4640   -5.5120    0.1870 C   0  0  0  0  0  2  0  0  0  0  0  0
    4.5080   -4.9850   -0.6270 O   0  0  0  0  0  0  0  0  0  0  0  0
    4.0420   -4.1930   -1.6530 C   0  0  0  0  0  0  0  0  0  0  0  0
    4.9120   -4.0720   -2.7330 C   0  0  0  0  0  3  0  0  0  0  0  0
    4.5370   -3.3410   -3.8580 C   0  0  0  0  0  3  0  0  0  0  0  0
    3.2670   -2.7520   -3.8870 C   0  0  0  0  0  0  0  0  0  0  0  0
    2.6810   -2.0710   -4.9230 N   0  0  0  0  0  0  0  0  0  0  0  0
    1.4740   -1.8100   -4.5170 C   0  0  0  0  0  0  0  0  0  0  0  0
    1.2930   -2.1670   -3.2010 N   0  0  0  0  0  0  0  0  0  0  0  0
    2.4170   -2.8430   -2.7740 C   0  0  0  0  0  0  0  0  0  0  0  0
    2.7860   -3.5380   -1.5970 C   0  0  0  0  0  0  0  0  0  0  0  0
    1.9290   -3.6730   -0.3640 C   0  0  0  0  0  2  0  0  0  0  0  0
    0.0440   -1.9150   -2.5020 C   0  0  0  0  0  2  0  0  0  0  0  0
   -0.8710   -0.9160   -3.2610 C   0  0  2  0  0  3  0  0  0  0  0  0
   -0.8790   -1.3330   -4.7360 C   0  0  0  0  0  2  0  0  0  0  0  0
    0.4730   -1.2600   -5.2320 N   0  0  0  0  0  0  0  0  0  0  0  0
    0.6230   -1.2030   -6.2420 H   0  0  0  0  0  0  0  0  0  0  0  0
    3.5440   -3.3560    1.5660 C   0  0  0  0  0  2  0  0  0  0  0  0
    1.9660   -2.0170    3.0120 C   0  0  0  0  0  1  0  0  0  0  0  0
    2.8380   -2.0240    1.7750 N   0  0  0  0  0  4  0  0  0  0  0  0
    3.7980   -0.8610    1.8060 C   0  0  0  0  0  1  0  0  0  0  0  0
    2.2120   -1.8430    0.9800 H   0  0  0  0  0  0  0  0  0  0  0  0
   -0.3750    0.5280   -3.0270 C   0  0  0  0  0  2  0  0  0  0  0  0
   -0.5860    1.0450   -1.6190 N   0  0  0  0  0  4  0  0  0  0  0  0
   -0.2450    2.4960   -1.4230 C   0  0  0  0  0  1  0  0  0  0  0  0
   -1.9920    0.7590   -1.1390 C   0  0  0  0  0  1  0  0  0  0  0  0
    0.0110    0.4860   -0.9920 H   0  0  0  0  0  0  0  0  0  0  0  0
  1 19  1  6  0  0  0
  2  1  1  0  0  0  0
  3  2  1  0  0  0  0
  4 12  1  0  0  0  0
  4  3  1  0  0  0  0
  5  4  2  0  0  0  0
  6  5  1  0  0  0  0
  7  6  2  0  0  0  0
  7 11  1  0  0  0  0
  8  9  2  0  0  0  0
  8  7  1  0  0  0  0
  9 10  1  0  0  0  0
 10 11  1  0  0  0  0
 10 14  1  0  0  0  0
 11 12  2  0  0  0  0
 12 13  1  0  0  0  0
 13  1  1  0  0  0  0
 15 24  1  6  0  0  0
 15 14  1  0  0  0  0
 16 15  1  0  0  0  0
 17 16  1  0  0  0  0
 17  9  1  0  0  0  0
 18 17  1  0  0  0  0
 19 21  1  0  0  0  0
 21 22  1  0  0  0  0
 21 20  1  0  0  0  0
 23 21  1  0  0  0  0
 24 25  1  0  0  0  0
 25 26  1  0  0  0  0
 25 27  1  0  0  0  0
 25 28  1  0  0  0  0
M  END
>  <minimizedAffinity>
-2.31747341

$$$$

 OpenBabel09082221253D

 28 31  0  0  1  0  0  0  0  0999 V2000
   -0.5480    3.4760   -3.4320 C   0  0  2  0  0  3  0  0  0  0  0  0
    0.2690    4.5120   -4.1930 C   0  0  0  0  0  2  0  0  0  0  0  0
    1.6580    4.2180   -4.0620 O   0  0  0  0  0  0  0  0  0  0  0  0
    2.0860    4.2160   -2.7530 C   0  0  0  0  0  0  0  0  0  0  0  0
    3.4510    4.4350   -2.5890 C   0  0  0  0  0  3  0  0  0  0  0  0
    4.0010    4.5110   -1.3110 C   0  0  0  0  0  3  0  0  0  0  0  0
    3.1540    4.3810   -0.2030 C   0  0  0  0  0  0  0  0  0  0  0  0
    3.4810    4.5070    1.1220 N   0  0  0  0  0  0  0  0  0  0  0  0
    2.3540    4.4080    1.7600 C   0  0  0  0  0  0  0  0  0  0  0  0
    1.3200    4.0780    0.9150 N   0  0  0  0  0  0  0  0  0  0  0  0
    1.7880    4.1150   -0.3820 C   0  0  0  0  0  0  0  0  0  0  0  0
    1.2060    3.9860   -1.6660 C   0  0  0  0  0  0  0  0  0  0  0  0
   -0.2500    3.6960   -1.9330 C   0  0  0  0  0  2  0  0  0  0  0  0
   -0.0300    3.8490    1.4050 C   0  0  0  0  0  2  0  0  0  0  0  0
   -0.0780    3.6610    2.9450 C   0  0  2  0  0  3  0  0  0  0  0  0
    0.7960    4.7560    3.5670 C   0  0  0  0  0  2  0  0  0  0  0  0
    2.1430    4.5890    3.0790 N   0  0  0  0  0  0  0  0  0  0  0  0
    2.9110    5.0170    3.6000 H   0  0  0  0  0  0  0  0  0  0  0  0
   -0.2220    2.0250   -3.8400 C   0  0  0  0  0  2  0  0  0  0  0  0
    1.3980    1.0110   -5.4910 C   0  0  0  0  0  1  0  0  0  0  0  0
    0.2030    1.9200   -5.2980 N   0  0  0  0  0  4  0  0  0  0  0  0
   -0.9300    1.4900   -6.1990 C   0  0  0  0  0  1  0  0  0  0  0  0
    0.4870    2.8470   -5.6370 H   0  0  0  0  0  0  0  0  0  0  0  0
    0.3670    2.2280    3.3120 C   0  0  0  0  0  2  0  0  0  0  0  0
   -0.6540    1.4340    4.1010 N   0  0  0  0  0  4  0  0  0  0  0  0
   -1.9670    2.1350    4.3160 C   0  0  0  0  0  1  0  0  0  0  0  0
   -0.8740    0.0690    3.4860 C   0  0  0  0  0  1  0  0  0  0  0  0
   -0.2420    1.2310    5.0230 H   0  0  0  0  0  0  0  0  0  0  0  0
  1 19  1  6  0  0  0
  1 13  1  0  0  0  0
  2  3  1  0  0  0  0
  2  1  1  0  0  0  0
  3  4  1  0  0  0  0
  4  5  2  0  0  0  0
  4 12  1  0  0  0  0
  5  6  1  0  0  0  0
  6  7  2  0  0  0  0
  7  8  1  0  0  0  0
  8  9  2  0  0  0  0
  9 17  1  0  0  0  0
 10 14  1  0  0  0  0
 10  9  1  0  0  0  0
 11  7  1  0  0  0  0
 11 10  1  0  0  0  0
 12 11  2  0  0  0  0
 13 12  1  0  0  0  0
 14 15  1  0  0  0  0
 15 24  1  6  0  0  0
 15 16  1  0  0  0  0
 17 16  1  0  0  0  0
 17 18  1  0  0  0  0
 20 21  1  0  0  0  0
 21 19  1  0  0  0  0
 22 21  1  0  0  0  0
 23 21  1  0  0  0  0
 24 25  1  0  0  0  0
 25 26  1  0  0  0  0
 25 28  1  0  0  0  0
 27 25  1  0  0  0  0
M  END
>  <minimizedAffinity>
-2.31309295

$$$$

 OpenBabel09082221253D

 28 31  0  0  1  0  0  0  0  0999 V2000
    0.9720   -2.1080    1.4300 C   0  0  2  0  0  3  0  0  0  0  0  0
    1.6650   -3.2070    2.2250 C   0  0  0  0  0  2  0  0  0  0  0  0
    3.0780   -3.0920    2.0720 O   0  0  0  0  0  0  0  0  0  0  0  0
    3.4860   -3.1930    0.7610 C   0  0  0  0  0  0  0  0  0  0  0  0
    4.8120   -3.5850    0.5950 C   0  0  0  0  0  3  0  0  0  0  0  0
    5.3330   -3.7760   -0.6820 C   0  0  0  0  0  3  0  0  0  0  0  0
    4.4950   -3.5860   -1.7880 C   0  0  0  0  0  0  0  0  0  0  0  0
    4.7880   -3.8010   -3.1100 N   0  0  0  0  0  0  0  0  0  0  0  0
    3.6730   -3.5890   -3.7430 C   0  0  0  0  0  0  0  0  0  0  0  0
    2.6980   -3.1020   -2.9030 N   0  0  0  0  0  0  0  0  0  0  0  0
    3.1740   -3.1460   -1.6090 C   0  0  0  0  0  0  0  0  0  0  0  0
    2.6280   -2.8970   -0.3270 C   0  0  0  0  0  0  0  0  0  0  0  0
    1.2220   -2.4200   -0.0610 C   0  0  0  0  0  2  0  0  0  0  0  0
    1.3810   -2.7260   -3.3920 C   0  0  0  0  0  2  0  0  0  0  0  0
    1.3370   -2.5930   -4.9380 C   0  0  2  0  0  3  0  0  0  0  0  0
    2.0620   -3.8100   -5.5230 C   0  0  0  0  0  2  0  0  0  0  0  0
    3.4250   -3.7920   -5.0520 N   0  0  0  0  0  0  0  0  0  0  0  0
    4.1280   -4.3310   -5.5620 H   0  0  0  0  0  0  0  0  0  0  0  0
    1.4800   -0.6940    1.7790 C   0  0  0  0  0  2  0  0  0  0  0  0
    3.4160    0.1720    3.1480 C   0  0  0  0  0  1  0  0  0  0  0  0
    2.1390   -0.6410    3.1500 N   0  0  0  0  0  4  0  0  0  0  0  0
    1.2020   -0.1390    4.2210 C   0  0  0  0  0  1  0  0  0  0  0  0
    2.4030   -1.5910    3.4370 H   0  0  0  0  0  0  0  0  0  0  0  0
    1.9500   -1.2410   -5.3640 C   0  0  0  0  0  2  0  0  0  0  0  0
    0.9970   -0.3210   -6.0990 N   0  0  0  0  0  4  0  0  0  0  0  0
   -0.4160   -0.8250   -6.1940 C   0  0  0  0  0  1  0  0  0  0  0  0
    1.0270    1.0740   -5.5120 C   0  0  0  0  0  1  0  0  0  0  0  0
    1.3610   -0.1980   -7.0550 H   0  0  0  0  0  0  0  0  0  0  0  0
  1 19  1  1  0  0  0
  1  2  1  0  0  0  0
  3  2  1  0  0  0  0
  4  3  1  0  0  0  0
  5  4  1  0  0  0  0
  6  5  2  0  0  0  0
  7 11  2  0  0  0  0
  7  6  1  0  0  0  0
  8  7  1  0  0  0  0
  9  8  2  0  0  0  0
  9 10  1  0  0  0  0
 10 11  1  0  0  0  0
 11 12  1  0  0  0  0
 12 13  1  0  0  0  0
 12  4  2  0  0  0  0
 13  1  1  0  0  0  0
 14 10  1  0  0  0  0
 15 24  1  1  0  0  0
 15 14  1  0  0  0  0
 16 17  1  0  0  0  0
 16 15  1  0  0  0  0
 17  9  1  0  0  0  0
 18 17  1  0  0  0  0
 19 21  1  0  0  0  0
 20 21  1  0  0  0  0
 21 23  1  0  0  0  0
 21 22  1  0  0  0  0
 25 27  1  0  0  0  0
 25 24  1  0  0  0  0
 26 25  1  0  0  0  0
 28 25  1  0  0  0  0
M  END
>  <minimizedAffinity>
-2.25558901

$$$$

 OpenBabel09082221253D

 28 31  0  0  1  0  0  0  0  0999 V2000
    0.3690   -2.6870    0.9390 C   0  0  2  0  0  3  0  0  0  0  0  0
    0.9410   -4.0820    1.1550 C   0  0  0  0  0  2  0  0  0  0  0  0
    2.3440   -4.0690    0.9020 O   0  0  0  0  0  0  0  0  0  0  0  0
    2.6560   -3.6740   -0.3800 C   0  0  0  0  0  0  0  0  0  0  0  0
    3.8990   -4.1060   -0.8340 C   0  0  0  0  0  3  0  0  0  0  0  0
    4.3110   -3.8190   -2.1330 C   0  0  0  0  0  3  0  0  0  0  0  0
    3.4450   -3.1090   -2.9740 C   0  0  0  0  0  0  0  0  0  0  0  0
    3.6250   -2.8010   -4.2970 N   0  0  0  0  0  0  0  0  0  0  0  0
    2.5170   -2.2310   -4.6660 C   0  0  0  0  0  0  0  0  0  0  0  0
    1.6740   -2.0230   -3.6000 N   0  0  0  0  0  0  0  0  0  0  0  0
    2.2140   -2.6390   -2.4900 C   0  0  0  0  0  0  0  0  0  0  0  0
    1.7860   -2.8720   -1.1610 C   0  0  0  0  0  0  0  0  0  0  0  0
    0.4820   -2.3950   -0.5720 C   0  0  0  0  0  2  0  0  0  0  0  0
    0.3990   -1.3420   -3.7500 C   0  0  0  0  0  2  0  0  0  0  0  0
    0.2830   -0.5900   -5.1040 C   0  0  2  0  0  3  0  0  0  0  0  0
    0.7900   -1.5370   -6.1970 C   0  0  0  0  0  2  0  0  0  0  0  0
    2.1660   -1.8590   -5.9130 N   0  0  0  0  0  0  0  0  0  0  0  0
    2.7530   -2.2180   -6.6690 H   0  0  0  0  0  0  0  0  0  0  0  0
    1.0940   -1.5990    1.7570 C   0  0  0  0  0  2  0  0  0  0  0  0
    2.8270   -1.4700    3.5880 C   0  0  0  0  0  1  0  0  0  0  0  0
    1.5330   -2.1040    3.1240 N   0  0  0  0  0  4  0  0  0  0  0  0
    0.4630   -1.9340    4.1730 C   0  0  0  0  0  1  0  0  0  0  0  0
    1.7100   -3.1150    3.0720 H   0  0  0  0  0  0  0  0  0  0  0  0
    1.0590    0.7440   -5.0290 C   0  0  0  0  0  2  0  0  0  0  0  0
    0.1850    1.9810   -5.0480 N   0  0  0  0  0  4  0  0  0  0  0  0
   -1.1890    1.7740   -5.6200 C   0  0  0  0  0  1  0  0  0  0  0  0
    0.1010    2.6070   -3.6730 C   0  0  0  0  0  1  0  0  0  0  0  0
    0.6680    2.6910   -5.6170 H   0  0  0  0  0  0  0  0  0  0  0  0
  1  2  1  0  0  0  0
  1 19  1  1  0  0  0
  3  2  1  0  0  0  0
  4  3  1  0  0  0  0
  5  4  1  0  0  0  0
  6  5  2  0  0  0  0
  7 11  2  0  0  0  0
  7  6  1  0  0  0  0
  8  7  1  0  0  0  0
  9  8  2  0  0  0  0
  9 10  1  0  0  0  0
 10 11  1  0  0  0  0
 11 12  1  0  0  0  0
 12 13  1  0  0  0  0
 12  4  2  0  0  0  0
 13  1  1  0  0  0  0
 14 10  1  0  0  0  0
 15 24  1  1  0  0  0
 15 14  1  0  0  0  0
 16 17  1  0  0  0  0
 16 15  1  0  0  0  0
 17  9  1  0  0  0  0
 18 17  1  0  0  0  0
 19 21  1  0  0  0  0
 21 20  1  0  0  0  0
 21 22  1  0  0  0  0
 23 21  1  0  0  0  0
 25 24  1  0  0  0  0
 25 27  1  0  0  0  0
 26 25  1  0  0  0  0
 28 25  1  0  0  0  0
M  END
>  <minimizedAffinity>
-2.23536777

$$$$

 OpenBabel09082221253D

 28 31  0  0  1  0  0  0  0  0999 V2000
    4.5760   -3.9140   -2.8890 C   0  0  2  0  0  3  0  0  0  0  0  0
    5.0010   -5.3770   -2.8970 C   0  0  0  0  0  2  0  0  0  0  0  0
    4.0400   -6.1600   -2.1940 O   0  0  0  0  0  0  0  0  0  0  0  0
    3.8840   -5.7690   -0.8820 C   0  0  0  0  0  0  0  0  0  0  0  0
    3.3750   -6.7530   -0.0400 C   0  0  0  0  0  3  0  0  0  0  0  0
    3.2210   -6.5020    1.3210 C   0  0  0  0  0  3  0  0  0  0  0  0
    3.6040   -5.2520    1.8240 C   0  0  0  0  0  0  0  0  0  0  0  0
    3.6100   -4.8400    3.1310 N   0  0  0  0  0  0  0  0  0  0  0  0
    4.1410   -3.6540    3.1100 C   0  0  0  0  0  0  0  0  0  0  0  0
    4.3490   -3.2150    1.8230 N   0  0  0  0  0  0  0  0  0  0  0  0
    4.0730   -4.2530    0.9570 C   0  0  0  0  0  0  0  0  0  0  0  0
    4.1970   -4.4600   -0.4370 C   0  0  0  0  0  0  0  0  0  0  0  0
    4.6880   -3.4330   -1.4270 C   0  0  0  0  0  2  0  0  0  0  0  0
    4.8750   -1.8890    1.5390 C   0  0  0  0  0  2  0  0  0  0  0  0
    4.8180   -0.9510    2.7750 C   0  0  2  0  0  3  0  0  0  0  0  0
    5.3340   -1.7480    3.9780 C   0  0  0  0  0  2  0  0  0  0  0  0
    4.4710   -2.8870    4.1680 N   0  0  0  0  0  0  0  0  0  0  0  0
    4.4670   -3.3540    5.0770 H   0  0  0  0  0  0  0  0  0  0  0  0
    3.1460   -3.6940   -3.4240 C   0  0  0  0  0  2  0  0  0  0  0  0
    3.0880   -3.8460   -5.9430 C   0  0  0  0  0  1  0  0  0  0  0  0
    3.1360   -2.9290   -4.7400 N   0  0  0  0  0  4  0  0  0  0  0  0
    2.0190   -1.9170   -4.8100 C   0  0  0  0  0  1  0  0  0  0  0  0
    4.0050   -2.3870   -4.8250 H   0  0  0  0  0  0  0  0  0  0  0  0
    3.3820   -0.4120    2.9570 C   0  0  0  0  0  2  0  0  0  0  0  0
    2.7410    0.1130    1.6880 N   0  0  0  0  0  4  0  0  0  0  0  0
    1.4120   -0.5030    1.3530 C   0  0  0  0  0  1  0  0  0  0  0  0
    2.6370    1.6220    1.7160 C   0  0  0  0  0  1  0  0  0  0  0  0
    3.3910   -0.0800    0.9120 H   0  0  0  0  0  0  0  0  0  0  0  0
  1 19  1  1  0  0  0
  1 13  1  0  0  0  0
  2  1  1  0  0  0  0
  2  3  1  0  0  0  0
  3  4  1  0  0  0  0
  4 12  2  0  0  0  0
  4  5  1  0  0  0  0
  5  6  2  0  0  0  0
  6  7  1  0  0  0  0
  7  8  1  0  0  0  0
  9  8  2  0  0  0  0
  9 17  1  0  0  0  0
 10  9  1  0  0  0  0
 11 10  1  0  0  0  0
 11  7  2  0  0  0  0
 12 11  1  0  0  0  0
 13 12  1  0  0  0  0
 14 10  1  0  0  0  0
 14 15  1  0  0  0  0
 15 24  1  1  0  0  0
 15 16  1  0  0  0  0
 16 17  1  0  0  0  0
 17 18  1  0  0  0  0
 20 21  1  0  0  0  0
 21 19  1  0  0  0  0
 22 21  1  0  0  0  0
 23 21  1  0  0  0  0
 25 27  1  0  0  0  0
 25 24  1  0  0  0  0
 26 25  1  0  0  0  0
 28 25  1  0  0  0  0
M  END
>  <minimizedAffinity>
-2.20160961

$$$$

 OpenBabel09082221253D

 28 31  0  0  1  0  0  0  0  0999 V2000
    1.5870   -3.2720   -0.4960 C   0  0  2  0  0  3  0  0  0  0  0  0
    1.6960   -4.6150   -1.2070 C   0  0  0  0  0  2  0  0  0  0  0  0
    2.6900   -4.5390   -2.2250 O   0  0  0  0  0  0  0  0  0  0  0  0
    2.4160   -3.5770   -3.1720 C   0  0  0  0  0  0  0  0  0  0  0  0
    3.0350   -3.7820   -4.4030 C   0  0  0  0  0  3  0  0  0  0  0  0
    2.7960   -2.9100   -5.4620 C   0  0  0  0  0  3  0  0  0  0  0  0
    1.9120   -1.8410   -5.2710 C   0  0  0  0  0  0  0  0  0  0  0  0
    1.4840   -0.9290   -6.2000 N   0  0  0  0  0  0  0  0  0  0  0  0
    0.6000   -0.2050   -5.5810 C   0  0  0  0  0  0  0  0  0  0  0  0
    0.5380   -0.5140   -4.2420 N   0  0  0  0  0  0  0  0  0  0  0  0
    1.3310   -1.6190   -4.0120 C   0  0  0  0  0  0  0  0  0  0  0  0
    1.5890   -2.4590   -2.9020 C   0  0  0  0  0  0  0  0  0  0  0  0
    1.0050   -2.2780   -1.5240 C   0  0  0  0  0  2  0  0  0  0  0  0
   -0.3320    0.2070   -3.3270 C   0  0  0  0  0  2  0  0  0  0  0  0
   -0.8660    1.5320   -3.9350 C   0  0  2  0  0  3  0  0  0  0  0  0
   -1.3280    1.2260   -5.3640 C   0  0  0  0  0  2  0  0  0  0  0  0
   -0.1920    0.7480   -6.1120 N   0  0  0  0  0  0  0  0  0  0  0  0
   -0.2260    0.7830   -7.1330 H   0  0  0  0  0  0  0  0  0  0  0  0
    2.9360   -2.7600    0.0480 C   0  0  0  0  0  2  0  0  0  0  0  0
    5.3230   -3.5550   -0.1610 C   0  0  0  0  0  1  0  0  0  0  0  0
    3.9220   -3.8930    0.3000 N   0  0  0  0  0  4  0  0  0  0  0  0
    3.9380   -4.3320    1.7430 C   0  0  0  0  0  1  0  0  0  0  0  0
    3.6330   -4.7200   -0.2370 H   0  0  0  0  0  0  0  0  0  0  0  0
    0.2260    2.6210   -3.8550 C   0  0  0  0  0  2  0  0  0  0  0  0
   -0.1280    3.8050   -2.9780 N   0  0  0  0  0  4  0  0  0  0  0  0
   -1.5010    3.7480   -2.3690 C   0  0  0  0  0  1  0  0  0  0  0  0
    0.9200    4.0220   -1.9080 C   0  0  0  0  0  1  0  0  0  0  0  0
   -0.0700    4.6510   -3.5620 H   0  0  0  0  0  0  0  0  0  0  0  0
  1 19  1  6  0  0  0
  2  1  1  0  0  0  0
  3  2  1  0  0  0  0
  4 12  1  0  0  0  0
  4  3  1  0  0  0  0
  5  4  2  0  0  0  0
  6  7  2  0  0  0  0
  6  5  1  0  0  0  0
  7 11  1  0  0  0  0
  8  9  2  0  0  0  0
  8  7  1  0  0  0  0
  9 10  1  0  0  0  0
 10 11  1  0  0  0  0
 10 14  1  0  0  0  0
 11 12  2  0  0  0  0
 12 13  1  0  0  0  0
 13  1  1  0  0  0  0
 15 24  1  6  0  0  0
 15 14  1  0  0  0  0
 16 15  1  0  0  0  0
 17  9  1  0  0  0  0
 17 16  1  0  0  0  0
 18 17  1  0  0  0  0
 19 21  1  0  0  0  0
 20 21  1  0  0  0  0
 21 22  1  0  0  0  0
 23 21  1  0  0  0  0
 24 25  1  0  0  0  0
 25 26  1  0  0  0  0
 25 27  1  0  0  0  0
 28 25  1  0  0  0  0
M  END
>  <minimizedAffinity>
-2.19600511

$$$$

 OpenBabel09082221253D

 28 31  0  0  1  0  0  0  0  0999 V2000
   -0.6340   -4.7510    0.2850 C   0  0  2  0  0  3  0  0  0  0  0  0
    0.1020   -5.1040    1.5710 C   0  0  0  0  0  2  0  0  0  0  0  0
    0.9910   -4.0460    1.9210 O   0  0  0  0  0  0  0  0  0  0  0  0
    1.9310   -3.7900    0.9480 C   0  0  0  0  0  0  0  0  0  0  0  0
    3.0840   -3.1590    1.4080 C   0  0  0  0  0  3  0  0  0  0  0  0
    4.1350   -2.8940    0.5330 C   0  0  0  0  0  3  0  0  0  0  0  0
    4.0160   -3.2890   -0.8050 C   0  0  0  0  0  0  0  0  0  0  0  0
    4.9600   -3.1960   -1.7950 N   0  0  0  0  0  0  0  0  0  0  0  0
    4.4290   -3.7830   -2.8250 C   0  0  0  0  0  0  0  0  0  0  0  0
    3.1180   -4.1290   -2.5920 N   0  0  0  0  0  0  0  0  0  0  0  0
    2.8310   -3.8830   -1.2660 C   0  0  0  0  0  0  0  0  0  0  0  0
    1.7260   -4.1240   -0.4140 C   0  0  0  0  0  0  0  0  0  0  0  0
    0.4230   -4.7520   -0.8400 C   0  0  0  0  0  2  0  0  0  0  0  0
    2.2910   -4.7420   -3.6190 C   0  0  0  0  0  2  0  0  0  0  0  0
    2.9150   -4.6180   -5.0360 C   0  0  2  0  0  3  0  0  0  0  0  0
    4.3980   -4.9830   -4.9160 C   0  0  0  0  0  2  0  0  0  0  0  0
    5.0200   -4.0520   -4.0060 N   0  0  0  0  0  0  0  0  0  0  0  0
    6.0360   -3.9430   -4.0330 H   0  0  0  0  0  0  0  0  0  0  0  0
   -1.3530   -3.3880    0.3510 C   0  0  0  0  0  2  0  0  0  0  0  0
   -1.4730   -1.5300    2.0550 C   0  0  0  0  0  1  0  0  0  0  0  0
   -1.7160   -2.9970    1.7760 N   0  0  0  0  0  4  0  0  0  0  0  0
   -3.1350   -3.3680    2.1330 C   0  0  0  0  0  1  0  0  0  0  0  0
   -1.1220   -3.5180    2.4330 H   0  0  0  0  0  0  0  0  0  0  0  0
    2.6680   -3.1990   -5.5940 C   0  0  0  0  0  2  0  0  0  0  0  0
    1.3850   -2.5490   -5.1150 N   0  0  0  0  0  4  0  0  0  0  0  0
    1.5510   -1.1610   -4.5630 C   0  0  0  0  0  1  0  0  0  0  0  0
    0.3290   -2.5690   -6.1990 C   0  0  0  0  0  1  0  0  0  0  0  0
    0.9950   -3.1470   -4.3730 H   0  0  0  0  0  0  0  0  0  0  0  0
  1 19  1  1  0  0  0
  1  2  1  0  0  0  0
  2  3  1  0  0  0  0
  4  5  1  0  0  0  0
  4  3  1  0  0  0  0
  6  5  2  0  0  0  0
  7  6  1  0  0  0  0
  8  7  1  0  0  0  0
  9 10  1  0  0  0  0
  9  8  2  0  0  0  0
 10 11  1  0  0  0  0
 11  7  2  0  0  0  0
 11 12  1  0  0  0  0
 12  4  2  0  0  0  0
 13 12  1  0  0  0  0
 13  1  1  0  0  0  0
 14 10  1  0  0  0  0
 15 24  1  1  0  0  0
 15 16  1  0  0  0  0
 15 14  1  0  0  0  0
 16 17  1  0  0  0  0
 17  9  1  0  0  0  0
 18 17  1  0  0  0  0
 19 21  1  0  0  0  0
 21 20  1  0  0  0  0
 21 22  1  0  0  0  0
 21 23  1  0  0  0  0
 24 25  1  0  0  0  0
 25 26  1  0  0  0  0
 25 28  1  0  0  0  0
 27 25  1  0  0  0  0
M  END
>  <minimizedAffinity>
-2.11552072

$$$$
