
 OpenBabel09092210413D

 28 31  0  0  1  0  0  0  0  0999 V2000
    0.9720   -2.1080    1.4300 C   0  0  2  0  0  3  0  0  0  0  0  0
    1.6650   -3.2070    2.2250 C   0  0  0  0  0  2  0  0  0  0  0  0
    3.0780   -3.0920    2.0720 O   0  0  0  0  0  0  0  0  0  0  0  0
    3.4860   -3.1930    0.7610 C   0  0  0  0  0  0  0  0  0  0  0  0
    4.8120   -3.5850    0.5950 C   0  0  0  0  0  3  0  0  0  0  0  0
    5.3330   -3.7760   -0.6820 C   0  0  0  0  0  3  0  0  0  0  0  0
    4.4950   -3.5860   -1.7880 C   0  0  0  0  0  0  0  0  0  0  0  0
    4.7880   -3.8010   -3.1100 N   0  0  0  0  0  0  0  0  0  0  0  0
    3.6730   -3.5890   -3.7430 C   0  0  0  0  0  0  0  0  0  0  0  0
    2.6980   -3.1020   -2.9030 N   0  0  0  0  0  0  0  0  0  0  0  0
    3.1740   -3.1460   -1.6090 C   0  0  0  0  0  0  0  0  0  0  0  0
    2.6280   -2.8970   -0.3270 C   0  0  0  0  0  0  0  0  0  0  0  0
    1.2220   -2.4200   -0.0610 C   0  0  0  0  0  2  0  0  0  0  0  0
    1.3810   -2.7260   -3.3920 C   0  0  0  0  0  2  0  0  0  0  0  0
    1.3370   -2.5930   -4.9380 C   0  0  2  0  0  3  0  0  0  0  0  0
    2.0620   -3.8100   -5.5230 C   0  0  0  0  0  2  0  0  0  0  0  0
    3.4250   -3.7920   -5.0520 N   0  0  0  0  0  0  0  0  0  0  0  0
    4.1280   -4.3310   -5.5620 H   0  0  0  0  0  0  0  0  0  0  0  0
    1.4800   -0.6940    1.7790 C   0  0  0  0  0  2  0  0  0  0  0  0
    3.4160    0.1720    3.1480 C   0  0  0  0  0  1  0  0  0  0  0  0
    2.1390   -0.6410    3.1500 N   0  0  0  0  0  4  0  0  0  0  0  0
    1.2020   -0.1390    4.2210 C   0  0  0  0  0  1  0  0  0  0  0  0
    2.4030   -1.5910    3.4370 H   0  0  0  0  0  0  0  0  0  0  0  0
    1.9500   -1.2410   -5.3640 C   0  0  0  0  0  2  0  0  0  0  0  0
    0.9970   -0.3210   -6.0990 N   0  0  0  0  0  4  0  0  0  0  0  0
   -0.4160   -0.8250   -6.1940 C   0  0  0  0  0  1  0  0  0  0  0  0
    1.0270    1.0740   -5.5120 C   0  0  0  0  0  1  0  0  0  0  0  0
    1.3610   -0.1980   -7.0550 H   0  0  0  0  0  0  0  0  0  0  0  0
  1 19  1  1  0  0  0
  1  2  1  0  0  0  0
  3  2  1  0  0  0  0
  4  3  1  0  0  0  0
  5  4  1  0  0  0  0
  6  5  2  0  0  0  0
  7 11  2  0  0  0  0
  7  6  1  0  0  0  0
  8  7  1  0  0  0  0
  9  8  2  0  0  0  0
  9 10  1  0  0  0  0
 10 11  1  0  0  0  0
 11 12  1  0  0  0  0
 12 13  1  0  0  0  0
 12  4  2  0  0  0  0
 13  1  1  0  0  0  0
 14 10  1  0  0  0  0
 15 24  1  1  0  0  0
 15 14  1  0  0  0  0
 16 17  1  0  0  0  0
 16 15  1  0  0  0  0
 17  9  1  0  0  0  0
 18 17  1  0  0  0  0
 19 21  1  0  0  0  0
 20 21  1  0  0  0  0
 21 23  1  0  0  0  0
 21 22  1  0  0  0  0
 25 27  1  0  0  0  0
 25 24  1  0  0  0  0
 26 25  1  0  0  0  0
 28 25  1  0  0  0  0
M  END
>  <minimizedAffinity>
-2.25558901

$$$$
