
 OpenBabel09092210413D

 28 31  0  0  1  0  0  0  0  0999 V2000
    2.6660   -4.3680    0.8010 C   0  0  2  0  0  3  0  0  0  0  0  0
    3.4640   -5.5120    0.1870 C   0  0  0  0  0  2  0  0  0  0  0  0
    4.5080   -4.9850   -0.6270 O   0  0  0  0  0  0  0  0  0  0  0  0
    4.0420   -4.1930   -1.6530 C   0  0  0  0  0  0  0  0  0  0  0  0
    4.9120   -4.0720   -2.7330 C   0  0  0  0  0  3  0  0  0  0  0  0
    4.5370   -3.3410   -3.8580 C   0  0  0  0  0  3  0  0  0  0  0  0
    3.2670   -2.7520   -3.8870 C   0  0  0  0  0  0  0  0  0  0  0  0
    2.6810   -2.0710   -4.9230 N   0  0  0  0  0  0  0  0  0  0  0  0
    1.4740   -1.8100   -4.5170 C   0  0  0  0  0  0  0  0  0  0  0  0
    1.2930   -2.1670   -3.2010 N   0  0  0  0  0  0  0  0  0  0  0  0
    2.4170   -2.8430   -2.7740 C   0  0  0  0  0  0  0  0  0  0  0  0
    2.7860   -3.5380   -1.5970 C   0  0  0  0  0  0  0  0  0  0  0  0
    1.9290   -3.6730   -0.3640 C   0  0  0  0  0  2  0  0  0  0  0  0
    0.0440   -1.9150   -2.5020 C   0  0  0  0  0  2  0  0  0  0  0  0
   -0.8710   -0.9160   -3.2610 C   0  0  2  0  0  3  0  0  0  0  0  0
   -0.8790   -1.3330   -4.7360 C   0  0  0  0  0  2  0  0  0  0  0  0
    0.4730   -1.2600   -5.2320 N   0  0  0  0  0  0  0  0  0  0  0  0
    0.6230   -1.2030   -6.2420 H   0  0  0  0  0  0  0  0  0  0  0  0
    3.5440   -3.3560    1.5660 C   0  0  0  0  0  2  0  0  0  0  0  0
    1.9660   -2.0170    3.0120 C   0  0  0  0  0  1  0  0  0  0  0  0
    2.8380   -2.0240    1.7750 N   0  0  0  0  0  4  0  0  0  0  0  0
    3.7980   -0.8610    1.8060 C   0  0  0  0  0  1  0  0  0  0  0  0
    2.2120   -1.8430    0.9800 H   0  0  0  0  0  0  0  0  0  0  0  0
   -0.3750    0.5280   -3.0270 C   0  0  0  0  0  2  0  0  0  0  0  0
   -0.5860    1.0450   -1.6190 N   0  0  0  0  0  4  0  0  0  0  0  0
   -0.2450    2.4960   -1.4230 C   0  0  0  0  0  1  0  0  0  0  0  0
   -1.9920    0.7590   -1.1390 C   0  0  0  0  0  1  0  0  0  0  0  0
    0.0110    0.4860   -0.9920 H   0  0  0  0  0  0  0  0  0  0  0  0
  1 19  1  6  0  0  0
  2  1  1  0  0  0  0
  3  2  1  0  0  0  0
  4 12  1  0  0  0  0
  4  3  1  0  0  0  0
  5  4  2  0  0  0  0
  6  5  1  0  0  0  0
  7  6  2  0  0  0  0
  7 11  1  0  0  0  0
  8  9  2  0  0  0  0
  8  7  1  0  0  0  0
  9 10  1  0  0  0  0
 10 11  1  0  0  0  0
 10 14  1  0  0  0  0
 11 12  2  0  0  0  0
 12 13  1  0  0  0  0
 13  1  1  0  0  0  0
 15 24  1  6  0  0  0
 15 14  1  0  0  0  0
 16 15  1  0  0  0  0
 17 16  1  0  0  0  0
 17  9  1  0  0  0  0
 18 17  1  0  0  0  0
 19 21  1  0  0  0  0
 21 22  1  0  0  0  0
 21 20  1  0  0  0  0
 23 21  1  0  0  0  0
 24 25  1  0  0  0  0
 25 26  1  0  0  0  0
 25 27  1  0  0  0  0
 25 28  1  0  0  0  0
M  END
>  <minimizedAffinity>
-2.31747341

$$$$
