
 OpenBabel09092210413D

 28 31  0  0  1  0  0  0  0  0999 V2000
   -1.4150    3.5550   -4.1000 C   0  0  2  0  0  3  0  0  0  0  0  0
   -1.0520    4.6790   -5.0620 C   0  0  0  0  0  2  0  0  0  0  0  0
    0.2600    4.4660   -5.5750 O   0  0  0  0  0  0  0  0  0  0  0  0
    1.2220    4.4200   -4.5900 C   0  0  0  0  0  0  0  0  0  0  0  0
    2.5110    4.7150   -5.0240 C   0  0  0  0  0  3  0  0  0  0  0  0
    3.5660    4.7550   -4.1160 C   0  0  0  0  0  3  0  0  0  0  0  0
    3.3000    4.5140   -2.7620 C   0  0  0  0  0  0  0  0  0  0  0  0
    4.1740    4.5880   -1.7090 N   0  0  0  0  0  0  0  0  0  0  0  0
    3.4480    4.3860   -0.6500 C   0  0  0  0  0  0  0  0  0  0  0  0
    2.1580    4.0380   -0.9800 N   0  0  0  0  0  0  0  0  0  0  0  0
    2.0040    4.1730   -2.3440 C   0  0  0  0  0  0  0  0  0  0  0  0
    0.9200    4.0770   -3.2480 C   0  0  0  0  0  0  0  0  0  0  0  0
   -0.4940    3.7120   -2.8720 C   0  0  0  0  0  2  0  0  0  0  0  0
    1.1720    3.6980    0.0330 C   0  0  0  0  0  2  0  0  0  0  0  0
    1.8140    3.4260    1.4200 C   0  0  2  0  0  3  0  0  0  0  0  0
    2.8380    4.5380    1.6770 C   0  0  0  0  0  2  0  0  0  0  0  0
    3.8350    4.4810    0.6370 N   0  0  0  0  0  0  0  0  0  0  0  0
    4.7400    4.9280    0.8000 H   0  0  0  0  0  0  0  0  0  0  0  0
   -1.2560    2.1510   -4.7190 C   0  0  0  0  0  2  0  0  0  0  0  0
   -2.9580    0.9820   -3.2660 C   0  0  0  0  0  1  0  0  0  0  0  0
   -1.5120    1.0440   -3.7060 N   0  0  0  0  0  4  0  0  0  0  0  0
   -1.0590   -0.3080   -4.2030 C   0  0  0  0  0  1  0  0  0  0  0  0
   -0.9600    1.2240   -2.8590 H   0  0  0  0  0  0  0  0  0  0  0  0
    2.4210    2.0060    1.4450 C   0  0  0  0  0  2  0  0  0  0  0  0
    2.7480    1.4850    2.8290 N   0  0  0  0  0  4  0  0  0  0  0  0
    1.5740    1.4000    3.7630 C   0  0  0  0  0  1  0  0  0  0  0  0
    3.4670    0.1560    2.7550 C   0  0  0  0  0  1  0  0  0  0  0  0
    3.4430    2.1230    3.2430 H   0  0  0  0  0  0  0  0  0  0  0  0
  1 19  1  6  0  0  0
  1 13  1  0  0  0  0
  2  1  1  0  0  0  0
  3  2  1  0  0  0  0
  3  4  1  0  0  0  0
  4 12  1  0  0  0  0
  5  4  2  0  0  0  0
  5  6  1  0  0  0  0
  6  7  2  0  0  0  0
  7 11  1  0  0  0  0
  7  8  1  0  0  0  0
  8  9  2  0  0  0  0
  9 17  1  0  0  0  0
 10  9  1  0  0  0  0
 10 14  1  0  0  0  0
 11 10  1  0  0  0  0
 12 13  1  0  0  0  0
 12 11  2  0  0  0  0
 14 15  1  0  0  0  0
 15 24  1  6  0  0  0
 15 16  1  0  0  0  0
 17 18  1  0  0  0  0
 17 16  1  0  0  0  0
 19 21  1  0  0  0  0
 21 20  1  0  0  0  0
 21 23  1  0  0  0  0
 22 21  1  0  0  0  0
 24 25  1  0  0  0  0
 25 28  1  0  0  0  0
 25 26  1  0  0  0  0
 27 25  1  0  0  0  0
M  END
>  <minimizedAffinity>
-2.64971828

$$$$
