
 OpenBabel09092210413D

 28 31  0  0  1  0  0  0  0  0999 V2000
    1.6550    0.6410    2.1050 C   0  0  2  0  0  3  0  0  0  0  0  0
    1.5230    0.3020    3.5840 C   0  0  0  0  0  2  0  0  0  0  0  0
    2.8120    0.0480    4.1350 O   0  0  0  0  0  0  0  0  0  0  0  0
    3.4650   -0.9950    3.5170 C   0  0  0  0  0  0  0  0  0  0  0  0
    4.4520   -1.6010    4.2900 C   0  0  0  0  0  3  0  0  0  0  0  0
    5.1500   -2.7020    3.7990 C   0  0  0  0  0  3  0  0  0  0  0  0
    4.8260   -3.1950    2.5290 C   0  0  0  0  0  0  0  0  0  0  0  0
    5.3320   -4.3070    1.9070 N   0  0  0  0  0  0  0  0  0  0  0  0
    4.6560   -4.4130    0.8020 C   0  0  0  0  0  0  0  0  0  0  0  0
    3.8280   -3.3320    0.6080 N   0  0  0  0  0  0  0  0  0  0  0  0
    3.8620   -2.5470    1.7420 C   0  0  0  0  0  0  0  0  0  0  0  0
    3.1680   -1.3980    2.1910 C   0  0  0  0  0  0  0  0  0  0  0  0
    2.1250   -0.6490    1.4000 C   0  0  0  0  0  2  0  0  0  0  0  0
    3.0180   -3.1900   -0.5910 C   0  0  0  0  0  2  0  0  0  0  0  0
    3.4580   -4.1570   -1.7230 C   0  0  2  0  0  3  0  0  0  0  0  0
    3.6720   -5.5360   -1.0900 C   0  0  0  0  0  2  0  0  0  0  0  0
    4.7070   -5.4200   -0.0930 N   0  0  0  0  0  0  0  0  0  0  0  0
    5.1910   -6.2660    0.2130 H   0  0  0  0  0  0  0  0  0  0  0  0
    2.6400    1.7960    1.8310 C   0  0  0  0  0  2  0  0  0  0  0  0
    0.8910    2.8770    0.3670 C   0  0  0  0  0  1  0  0  0  0  0  0
    2.3490    2.5000    0.5140 N   0  0  0  0  0  4  0  0  0  0  0  0
    3.2250    3.7100    0.3010 C   0  0  0  0  0  1  0  0  0  0  0  0
    2.5630    1.8650   -0.2650 H   0  0  0  0  0  0  0  0  0  0  0  0
    4.7140   -3.5970   -2.4290 C   0  0  0  0  0  2  0  0  0  0  0  0
    4.5520   -3.3790   -3.9200 N   0  0  0  0  0  4  0  0  0  0  0  0
    4.8470   -4.5850   -4.7680 C   0  0  0  0  0  1  0  0  0  0  0  0
    3.1830   -2.8230   -4.2420 C   0  0  0  0  0  1  0  0  0  0  0  0
    5.2000   -2.6260   -4.1930 H   0  0  0  0  0  0  0  0  0  0  0  0
  1 19  1  1  0  0  0
  1  2  1  0  0  0  0
  2  3  1  0  0  0  0
  4  3  1  0  0  0  0
  4  5  1  0  0  0  0
  6  5  2  0  0  0  0
  7  6  1  0  0  0  0
  8  7  1  0  0  0  0
  9  8  2  0  0  0  0
 10  9  1  0  0  0  0
 10 11  1  0  0  0  0
 11 12  1  0  0  0  0
 11  7  2  0  0  0  0
 12  4  2  0  0  0  0
 13  1  1  0  0  0  0
 13 12  1  0  0  0  0
 14 10  1  0  0  0  0
 15 24  1  1  0  0  0
 15 16  1  0  0  0  0
 15 14  1  0  0  0  0
 16 17  1  0  0  0  0
 17 18  1  0  0  0  0
 17  9  1  0  0  0  0
 20 21  1  0  0  0  0
 21 19  1  0  0  0  0
 22 21  1  0  0  0  0
 23 21  1  0  0  0  0
 25 24  1  0  0  0  0
 26 25  1  0  0  0  0
 27 25  1  0  0  0  0
 28 25  1  0  0  0  0
M  END
>  <minimizedAffinity>
-2.42495799

$$$$
