
 OpenBabel09092210413D

 28 31  0  0  1  0  0  0  0  0999 V2000
    1.5870   -3.2720   -0.4960 C   0  0  2  0  0  3  0  0  0  0  0  0
    1.6960   -4.6150   -1.2070 C   0  0  0  0  0  2  0  0  0  0  0  0
    2.6900   -4.5390   -2.2250 O   0  0  0  0  0  0  0  0  0  0  0  0
    2.4160   -3.5770   -3.1720 C   0  0  0  0  0  0  0  0  0  0  0  0
    3.0350   -3.7820   -4.4030 C   0  0  0  0  0  3  0  0  0  0  0  0
    2.7960   -2.9100   -5.4620 C   0  0  0  0  0  3  0  0  0  0  0  0
    1.9120   -1.8410   -5.2710 C   0  0  0  0  0  0  0  0  0  0  0  0
    1.4840   -0.9290   -6.2000 N   0  0  0  0  0  0  0  0  0  0  0  0
    0.6000   -0.2050   -5.5810 C   0  0  0  0  0  0  0  0  0  0  0  0
    0.5380   -0.5140   -4.2420 N   0  0  0  0  0  0  0  0  0  0  0  0
    1.3310   -1.6190   -4.0120 C   0  0  0  0  0  0  0  0  0  0  0  0
    1.5890   -2.4590   -2.9020 C   0  0  0  0  0  0  0  0  0  0  0  0
    1.0050   -2.2780   -1.5240 C   0  0  0  0  0  2  0  0  0  0  0  0
   -0.3320    0.2070   -3.3270 C   0  0  0  0  0  2  0  0  0  0  0  0
   -0.8660    1.5320   -3.9350 C   0  0  2  0  0  3  0  0  0  0  0  0
   -1.3280    1.2260   -5.3640 C   0  0  0  0  0  2  0  0  0  0  0  0
   -0.1920    0.7480   -6.1120 N   0  0  0  0  0  0  0  0  0  0  0  0
   -0.2260    0.7830   -7.1330 H   0  0  0  0  0  0  0  0  0  0  0  0
    2.9360   -2.7600    0.0480 C   0  0  0  0  0  2  0  0  0  0  0  0
    5.3230   -3.5550   -0.1610 C   0  0  0  0  0  1  0  0  0  0  0  0
    3.9220   -3.8930    0.3000 N   0  0  0  0  0  4  0  0  0  0  0  0
    3.9380   -4.3320    1.7430 C   0  0  0  0  0  1  0  0  0  0  0  0
    3.6330   -4.7200   -0.2370 H   0  0  0  0  0  0  0  0  0  0  0  0
    0.2260    2.6210   -3.8550 C   0  0  0  0  0  2  0  0  0  0  0  0
   -0.1280    3.8050   -2.9780 N   0  0  0  0  0  4  0  0  0  0  0  0
   -1.5010    3.7480   -2.3690 C   0  0  0  0  0  1  0  0  0  0  0  0
    0.9200    4.0220   -1.9080 C   0  0  0  0  0  1  0  0  0  0  0  0
   -0.0700    4.6510   -3.5620 H   0  0  0  0  0  0  0  0  0  0  0  0
  1 19  1  6  0  0  0
  2  1  1  0  0  0  0
  3  2  1  0  0  0  0
  4 12  1  0  0  0  0
  4  3  1  0  0  0  0
  5  4  2  0  0  0  0
  6  7  2  0  0  0  0
  6  5  1  0  0  0  0
  7 11  1  0  0  0  0
  8  9  2  0  0  0  0
  8  7  1  0  0  0  0
  9 10  1  0  0  0  0
 10 11  1  0  0  0  0
 10 14  1  0  0  0  0
 11 12  2  0  0  0  0
 12 13  1  0  0  0  0
 13  1  1  0  0  0  0
 15 24  1  6  0  0  0
 15 14  1  0  0  0  0
 16 15  1  0  0  0  0
 17  9  1  0  0  0  0
 17 16  1  0  0  0  0
 18 17  1  0  0  0  0
 19 21  1  0  0  0  0
 20 21  1  0  0  0  0
 21 22  1  0  0  0  0
 23 21  1  0  0  0  0
 24 25  1  0  0  0  0
 25 26  1  0  0  0  0
 25 27  1  0  0  0  0
 28 25  1  0  0  0  0
M  END
>  <minimizedAffinity>
-2.19600511

$$$$
