REMARK  Name = 
REMARK  7 active torsions:
REMARK  status: ('A' for Active; 'I' for Inactive)
REMARK    1  A    between atoms: C_2  and  C_4
REMARK    2  A    between atoms: C_11  and  C_12
REMARK    3  A    between atoms: C_15  and  O_16
REMARK    4  A    between atoms: O_16  and  C_17
REMARK    5  A    between atoms: C_17  and  C_18
REMARK    6  A    between atoms: C_23  and  C_24
REMARK    7  A    between atoms: N_33  and  C_34
REMARK                            x       y       z     vdW  Elec       q    Type
REMARK                         _______ _______ _______ _____ _____    ______ ____
ROOT
ATOM      1  C   UNL     1       6.614   1.649  -5.836  0.00  0.00    +0.020 A 
ATOM      2  C   UNL     1       7.730   2.495  -5.872  0.00  0.00    +0.015 A 
ATOM      3  C   UNL     1       8.466   2.657  -7.052  0.00  0.00    +0.049 A 
ATOM      4  C   UNL     1       8.094   1.968  -8.207  0.00  0.00    +0.156 A 
ATOM      5  C   UNL     1       7.008   1.087  -8.144  0.00  0.00    +0.165 A 
ATOM      6  F   UNL     1       6.631   0.410  -9.240  0.00  0.00    -0.202 F 
ATOM      7  C   UNL     1       6.273   0.919  -6.975  0.00  0.00    +0.053 A 
ENDROOT
BRANCH   1  15
ATOM      8  C   UNL     1       3.489   0.522  -0.855  0.00  0.00    -0.001 A 
ATOM      9  C   UNL     1       2.992   1.820  -1.055  0.00  0.00    +0.012 A 
ATOM     10  C   UNL     1       3.395   2.616  -2.135  0.00  0.00    +0.028 A 
ATOM     11  C   UNL     1       4.325   2.070  -3.029  0.00  0.00    +0.069 A 
ATOM     12  C   UNL     1       4.842   0.787  -2.862  0.00  0.00    +0.090 A 
ATOM     13  C   UNL     1       4.425   0.006  -1.772  0.00  0.00    +0.039 A 
ATOM     14  N   UNL     1       5.731   0.483  -3.864  0.00  0.00    -0.228 NA
ATOM     15  C   UNL     1       5.789   1.548  -4.636  0.00  0.00    +0.142 A 
ATOM     16  N   UNL     1       4.926   2.533  -4.181  0.00  0.00    -0.320 N 
BRANCH  16  17
ATOM     17  C   UNL     1       4.675   3.811  -4.844  0.00  0.00    +0.089 C 
ATOM     18  C   UNL     1       3.224   3.966  -5.327  0.00  0.00    +0.025 C 
ATOM     19  C   UNL     1       3.030   5.285  -6.074  0.00  0.00    +0.002 C 
ATOM     20  C   UNL     1       3.482   6.478  -5.236  0.00  0.00    +0.000 C 
ATOM     21  C   UNL     1       4.926   6.325  -4.765  0.00  0.00    +0.002 C 
ATOM     22  C   UNL     1       5.139   5.014  -4.010  0.00  0.00    +0.025 C 
ENDBRANCH  16  17
BRANCH   8  24
ATOM     23  O   UNL     1       2.174   0.230   1.108  0.00  0.00    -0.545 OA
ATOM     24  C   UNL     1       3.023  -0.306   0.327  0.00  0.00    +0.072 C 
ATOM     25  O   UNL     1       3.514  -1.471   0.452  0.00  0.00    -0.545 OA
ENDBRANCH   8  24
ENDBRANCH   1  15
BRANCH   4  26
ATOM     26  O   UNL     1       8.673   2.097  -9.441  0.00  0.00    -0.484 OA
BRANCH  26  27
ATOM     27  C   UNL     1       9.725   3.051  -9.622  0.00  0.00    +0.265 C 
BRANCH  27  28
ATOM     28  C   UNL     1       9.268   4.501  -9.713  0.00  0.00    -0.003 A 
ATOM     29  C   UNL     1       7.915   4.812  -9.946  0.00  0.00    +0.007 A 
ATOM     30  C   UNL     1       7.479   6.136 -10.009  0.00  0.00    +0.000 A 
ATOM     31  C   UNL     1       8.390   7.174  -9.862  0.00  0.00    +0.001 A 
ATOM     32  C   UNL     1       9.740   6.887  -9.666  0.00  0.00    +0.009 A 
ATOM     33  C   UNL     1      10.202   5.559  -9.600  0.00  0.00    -0.011 A 
BRANCH  33  34
ATOM     34  C   UNL     1      11.643   5.321  -9.441  0.00  0.00    -0.018 A 
ATOM     35  C   UNL     1      12.436   4.987 -10.551  0.00  0.00    +0.008 A 
ATOM     36  C   UNL     1      13.806   4.760 -10.408  0.00  0.00    +0.001 A 
ATOM     37  C   UNL     1      14.402   4.868  -9.153  0.00  0.00    +0.000 A 
ATOM     38  C   UNL     1      13.629   5.204  -8.043  0.00  0.00    +0.001 A 
ATOM     39  C   UNL     1      12.258   5.431  -8.186  0.00  0.00    +0.008 A 
ENDBRANCH  33  34
ENDBRANCH  27  28
ENDBRANCH  26  27
ENDBRANCH   4  26
TORSDOF 7
