
 OpenBabel09122222393D

 39 44  0  0  0  0  0  0  0  0999 V2000
   12.1280    5.1900    0.3330 C   0  0  0  0  0  0  0  0  0  0  0  0
   12.6900    4.2060    1.1570 C   0  0  0  0  0  3  0  0  0  0  0  0
   11.9560    3.0690    1.5160 C   0  0  0  0  0  3  0  0  0  0  0  0
   10.6480    2.9090    1.0570 C   0  0  0  0  0  0  0  0  0  0  0  0
   10.0800    3.9230    0.2770 C   0  0  0  0  0  0  0  0  0  0  0  0
    8.8230    3.7950   -0.1750 F   0  0  0  0  0  0  0  0  0  0  0  0
   10.8020    5.0570   -0.0830 C   0  0  0  0  0  3  0  0  0  0  0  0
   15.8890    9.3570   -1.7480 C   0  0  0  0  0  0  0  0  0  0  0  0
   14.9300   10.2540   -1.2510 C   0  0  0  0  0  3  0  0  0  0  0  0
   13.7590    9.8190   -0.6180 C   0  0  0  0  0  3  0  0  0  0  0  0
   13.5670    8.4370   -0.4900 C   0  0  0  0  0  0  0  0  0  0  0  0
   14.4960    7.5170   -0.9720 C   0  0  0  0  0  0  0  0  0  0  0  0
   15.6630    7.9740   -1.6050 C   0  0  0  0  0  3  0  0  0  0  0  0
   14.0830    6.2300   -0.7260 N   0  0  0  0  0  0  0  0  0  0  0  0
   12.9190    6.3300   -0.1200 C   0  0  0  0  0  0  0  0  0  0  0  0
   12.5760    7.6600    0.0710 N   0  0  0  0  0  0  0  0  0  0  0  0
   11.3920    8.1350    0.7850 C   0  0  0  0  0  3  0  0  0  0  0  0
   11.7330    8.9860    2.0190 C   0  0  0  0  0  2  0  0  0  0  0  0
   10.4670    9.3990    2.7700 C   0  0  0  0  0  2  0  0  0  0  0  0
    9.4710   10.1010    1.8500 C   0  0  0  0  0  2  0  0  0  0  0  0
    9.1290    9.2490    0.6310 C   0  0  0  0  0  2  0  0  0  0  0  0
   10.3820    8.8310   -0.1370 C   0  0  0  0  0  2  0  0  0  0  0  0
   17.0190   10.8880   -3.1800 O   0  0  0  0  0  0  0  0  0  0  0  0
   17.1450    9.8710   -2.4250 C   0  0  0  0  0  0  0  0  0  0  0  0
   18.2290    9.2510   -2.1920 O   0  0  0  0  0  1  0  0  0  0  0  0
    9.8530    1.8140    1.2640 O   0  0  0  0  0  0  0  0  0  0  0  0
    9.8520    0.7590    0.2970 C   0  0  0  0  0  2  0  0  0  0  0  0
    9.5330   -0.6220    0.8540 C   0  0  0  0  0  0  0  0  0  0  0  0
    8.7220   -0.7640    1.9950 C   0  0  0  0  0  3  0  0  0  0  0  0
    8.4030   -2.0240    2.5030 C   0  0  0  0  0  3  0  0  0  0  0  0
    8.9060   -3.1650    1.8920 C   0  0  0  0  0  3  0  0  0  0  0  0
    9.7400   -3.0450    0.7810 C   0  0  0  0  0  3  0  0  0  0  0  0
   10.0760   -1.7840    0.2530 C   0  0  0  0  0  0  0  0  0  0  0  0
   10.9980   -1.7210   -0.8880 C   0  0  0  0  0  0  0  0  0  0  0  0
   12.1040   -2.5830   -0.9580 C   0  0  0  0  0  3  0  0  0  0  0  0
   12.9850   -2.5290   -2.0390 C   0  0  0  0  0  3  0  0  0  0  0  0
   12.7700   -1.6140   -3.0680 C   0  0  0  0  0  3  0  0  0  0  0  0
   11.6730   -0.7550   -3.0150 C   0  0  0  0  0  3  0  0  0  0  0  0
   10.7920   -0.8090   -1.9330 C   0  0  0  0  0  3  0  0  0  0  0  0
  1  2  1  0  0  0  0
  2  3  2  0  0  0  0
  4 26  1  0  0  0  0
  4  3  1  0  0  0  0
  5  4  2  0  0  0  0
  6  5  1  0  0  0  0
  7  5  1  0  0  0  0
  7  1  2  0  0  0  0
  8 13  2  0  0  0  0
  8  9  1  0  0  0  0
  9 10  2  0  0  0  0
 10 11  1  0  0  0  0
 11 16  1  0  0  0  0
 12 14  1  0  0  0  0
 12 11  2  0  0  0  0
 13 12  1  0  0  0  0
 14 15  2  0  0  0  0
 15 16  1  0  0  0  0
 15  1  1  0  0  0  0
 16 17  1  0  0  0  0
 17 18  1  0  0  0  0
 18 19  1  0  0  0  0
 20 19  1  0  0  0  0
 21 20  1  0  0  0  0
 22 21  1  0  0  0  0
 22 17  1  0  0  0  0
 23 24  2  0  0  0  0
 24 25  1  0  0  0  0
 24  8  1  0  0  0  0
 27 28  1  0  0  0  0
 27 26  1  0  0  0  0
 28 29  1  0  0  0  0
 29 30  2  0  0  0  0
 31 30  1  0  0  0  0
 32 31  2  0  0  0  0
 33 32  1  0  0  0  0
 33 28  2  0  0  0  0
 34 33  1  0  0  0  0
 35 34  1  0  0  0  0
 36 35  2  0  0  0  0
 37 38  2  0  0  0  0
 37 36  1  0  0  0  0
 38 39  1  0  0  0  0
 39 34  2  0  0  0  0
M  END
>  <minimizedAffinity>
-7.61283827

$$$$
