
 OpenBabel09122222393D

 39 44  0  0  0  0  0  0  0  0999 V2000
   12.0500    4.7380    2.5240 C   0  0  0  0  0  0  0  0  0  0  0  0
   12.0430    4.1590    1.2490 C   0  0  0  0  0  3  0  0  0  0  0  0
   11.2610    3.0280    0.9820 C   0  0  0  0  0  3  0  0  0  0  0  0
   10.4830    2.4630    1.9930 C   0  0  0  0  0  0  0  0  0  0  0  0
   10.5380    3.0210    3.2760 C   0  0  0  0  0  0  0  0  0  0  0  0
    9.8010    2.4950    4.2670 F   0  0  0  0  0  0  0  0  0  0  0  0
   11.3130    4.1430    3.5490 C   0  0  0  0  0  3  0  0  0  0  0  0
   15.6080    9.3480    3.9120 C   0  0  0  0  0  0  0  0  0  0  0  0
   14.5710   10.1180    3.3620 C   0  0  0  0  0  3  0  0  0  0  0  0
   13.4050    9.5400    2.8430 C   0  0  0  0  0  3  0  0  0  0  0  0
   13.3000    8.1440    2.8910 C   0  0  0  0  0  0  0  0  0  0  0  0
   14.3090    7.3470    3.4270 C   0  0  0  0  0  0  0  0  0  0  0  0
   15.4700    7.9470    3.9410 C   0  0  0  0  0  3  0  0  0  0  0  0
   13.9720    6.0170    3.3600 N   0  0  0  0  0  0  0  0  0  0  0  0
   12.7890    5.9700    2.7830 C   0  0  0  0  0  0  0  0  0  0  0  0
   12.3260    7.2470    2.5040 N   0  0  0  0  0  0  0  0  0  0  0  0
   11.0160    7.5690    1.9430 C   0  0  0  0  0  3  0  0  0  0  0  0
   10.3050    8.7110    2.6850 C   0  0  0  0  0  2  0  0  0  0  0  0
    8.9130    8.9620    2.1060 C   0  0  0  0  0  2  0  0  0  0  0  0
    8.9660    9.2070    0.6000 C   0  0  0  0  0  2  0  0  0  0  0  0
    9.6650    8.0670   -0.1350 C   0  0  0  0  0  2  0  0  0  0  0  0
   11.0620    7.8040    0.4260 C   0  0  0  0  0  2  0  0  0  0  0  0
   16.9000   11.2870    4.4040 O   0  0  0  0  0  0  0  0  0  0  0  0
   16.8520   10.0170    4.4640 C   0  0  0  0  0  0  0  0  0  0  0  0
   17.7550    9.2630    4.9450 O   0  0  0  0  0  1  0  0  0  0  0  0
    9.6150    1.4130    1.8480 O   0  0  0  0  0  0  0  0  0  0  0  0
    9.7870    0.5140    0.7470 C   0  0  0  0  0  2  0  0  0  0  0  0
    9.4410   -0.9390    1.0460 C   0  0  0  0  0  0  0  0  0  0  0  0
    8.6460   -1.2710    2.1590 C   0  0  0  0  0  3  0  0  0  0  0  0
    8.3020   -2.5960    2.4320 C   0  0  0  0  0  3  0  0  0  0  0  0
    8.7650   -3.6160    1.6100 C   0  0  0  0  0  3  0  0  0  0  0  0
    9.5840   -3.3100    0.5230 C   0  0  0  0  0  3  0  0  0  0  0  0
    9.9430   -1.9810    0.2300 C   0  0  0  0  0  0  0  0  0  0  0  0
   10.8480   -1.7280   -0.8990 C   0  0  0  0  0  0  0  0  0  0  0  0
   10.5570   -0.7200   -1.8320 C   0  0  0  0  0  3  0  0  0  0  0  0
   11.4120   -0.4730   -2.9080 C   0  0  0  0  0  3  0  0  0  0  0  0
   12.5720   -1.2290   -3.0620 C   0  0  0  0  0  3  0  0  0  0  0  0
   12.8770   -2.2300   -2.1410 C   0  0  0  0  0  3  0  0  0  0  0  0
   12.0210   -2.4770   -1.0650 C   0  0  0  0  0  3  0  0  0  0  0  0
  1 15  1  0  0  0  0
  1  7  1  0  0  0  0
  2  1  2  0  0  0  0
  3  2  1  0  0  0  0
  3  4  2  0  0  0  0
  4  5  1  0  0  0  0
  5  7  2  0  0  0  0
  5  6  1  0  0  0  0
  8 13  1  0  0  0  0
  8 24  1  0  0  0  0
  9  8  2  0  0  0  0
 10 11  2  0  0  0  0
 10  9  1  0  0  0  0
 11 12  1  0  0  0  0
 12 13  2  0  0  0  0
 14 12  1  0  0  0  0
 15 14  2  0  0  0  0
 16 15  1  0  0  0  0
 16 11  1  0  0  0  0
 17 16  1  0  0  0  0
 17 18  1  0  0  0  0
 19 18  1  0  0  0  0
 20 19  1  0  0  0  0
 21 22  1  0  0  0  0
 21 20  1  0  0  0  0
 22 17  1  0  0  0  0
 23 24  2  0  0  0  0
 24 25  1  0  0  0  0
 26  4  1  0  0  0  0
 27 28  1  0  0  0  0
 27 26  1  0  0  0  0
 28 29  1  0  0  0  0
 29 30  2  0  0  0  0
 31 30  1  0  0  0  0
 32 31  2  0  0  0  0
 33 32  1  0  0  0  0
 33 28  2  0  0  0  0
 34 33  1  0  0  0  0
 35 34  2  0  0  0  0
 36 35  1  0  0  0  0
 37 36  2  0  0  0  0
 37 38  1  0  0  0  0
 38 39  2  0  0  0  0
 39 34  1  0  0  0  0
M  END
>  <minimizedAffinity>
-7.36731863

$$$$
