
 OpenBabel09122222393D

 39 44  0  0  0  0  0  0  0  0999 V2000
   11.2490    3.1750    0.3970 C   0  0  0  0  0  0  0  0  0  0  0  0
   10.9550    2.2360   -0.6000 C   0  0  0  0  0  3  0  0  0  0  0  0
   10.2400    1.0710   -0.2960 C   0  0  0  0  0  3  0  0  0  0  0  0
    9.8170    0.8340    1.0130 C   0  0  0  0  0  0  0  0  0  0  0  0
   10.1620    1.7550    2.0090 C   0  0  0  0  0  0  0  0  0  0  0  0
    9.7700    1.5490    3.2760 F   0  0  0  0  0  0  0  0  0  0  0  0
   10.8740    2.9130    1.7150 C   0  0  0  0  0  3  0  0  0  0  0  0
   14.0420    8.0570   -1.6560 C   0  0  0  0  0  0  0  0  0  0  0  0
   13.9400    8.4900   -0.3240 C   0  0  0  0  0  3  0  0  0  0  0  0
   13.3390    7.7080    0.6720 C   0  0  0  0  0  3  0  0  0  0  0  0
   12.8340    6.4570    0.2950 C   0  0  0  0  0  0  0  0  0  0  0  0
   12.9150    5.9950   -1.0170 C   0  0  0  0  0  0  0  0  0  0  0  0
   13.5210    6.7950   -2.0000 C   0  0  0  0  0  3  0  0  0  0  0  0
   12.3520    4.7480   -1.1330 N   0  0  0  0  0  0  0  0  0  0  0  0
   11.9120    4.4340    0.0680 C   0  0  0  0  0  0  0  0  0  0  0  0
   12.2090    5.4360    0.9790 N   0  0  0  0  0  0  0  0  0  0  0  0
   11.9420    5.3820    2.4140 C   0  0  0  0  0  3  0  0  0  0  0  0
   13.2200    5.3060    3.2640 C   0  0  0  0  0  2  0  0  0  0  0  0
   12.8870    5.1800    4.7500 C   0  0  0  0  0  2  0  0  0  0  0  0
   11.9590    6.2990    5.2160 C   0  0  0  0  0  2  0  0  0  0  0  0
   10.6870    6.3660    4.3750 C   0  0  0  0  0  2  0  0  0  0  0  0
   10.9990    6.4980    2.8860 C   0  0  0  0  0  2  0  0  0  0  0  0
   13.9410    9.6850   -3.3900 O   0  0  0  0  0  0  0  0  0  0  0  0
   14.7030    8.9350   -2.7010 C   0  0  0  0  0  0  0  0  0  0  0  0
   15.9660    8.8580   -2.8120 O   0  0  0  0  0  1  0  0  0  0  0  0
    9.0450   -0.2180    1.4290 O   0  0  0  0  0  0  0  0  0  0  0  0
    9.6820   -1.3790    1.9730 C   0  0  0  0  0  2  0  0  0  0  0  0
    9.0700   -2.7060    1.5440 C   0  0  0  0  0  0  0  0  0  0  0  0
    7.9960   -3.2650    2.2630 C   0  0  0  0  0  3  0  0  0  0  0  0
    7.4120   -4.4690    1.8680 C   0  0  0  0  0  3  0  0  0  0  0  0
    7.9020   -5.1480    0.7600 C   0  0  0  0  0  3  0  0  0  0  0  0
    8.9880   -4.6290    0.0560 C   0  0  0  0  0  3  0  0  0  0  0  0
    9.5940   -3.4170    0.4370 C   0  0  0  0  0  0  0  0  0  0  0  0
   10.7650   -2.9470   -0.3150 C   0  0  0  0  0  0  0  0  0  0  0  0
   12.0500   -3.4160    0.0030 C   0  0  0  0  0  3  0  0  0  0  0  0
   13.1680   -2.9750   -0.7070 C   0  0  0  0  0  3  0  0  0  0  0  0
   13.0140   -2.0610   -1.7480 C   0  0  0  0  0  3  0  0  0  0  0  0
   11.7450   -1.5900   -2.0780 C   0  0  0  0  0  3  0  0  0  0  0  0
   10.6260   -2.0320   -1.3670 C   0  0  0  0  0  3  0  0  0  0  0  0
  1  7  1  0  0  0  0
  2  3  1  0  0  0  0
  2  1  2  0  0  0  0
  3  4  2  0  0  0  0
  4 26  1  0  0  0  0
  4  5  1  0  0  0  0
  5  6  1  0  0  0  0
  7  5  2  0  0  0  0
  8  9  1  0  0  0  0
  9 10  2  0  0  0  0
 11 10  1  0  0  0  0
 11 16  1  0  0  0  0
 12 11  2  0  0  0  0
 13  8  2  0  0  0  0
 13 12  1  0  0  0  0
 14 12  1  0  0  0  0
 14 15  2  0  0  0  0
 15  1  1  0  0  0  0
 15 16  1  0  0  0  0
 16 17  1  0  0  0  0
 17 22  1  0  0  0  0
 17 18  1  0  0  0  0
 18 19  1  0  0  0  0
 19 20  1  0  0  0  0
 21 20  1  0  0  0  0
 22 21  1  0  0  0  0
 23 24  2  0  0  0  0
 24  8  1  0  0  0  0
 25 24  1  0  0  0  0
 26 27  1  0  0  0  0
 28 27  1  0  0  0  0
 28 29  1  0  0  0  0
 30 29  2  0  0  0  0
 31 30  1  0  0  0  0
 32 33  1  0  0  0  0
 32 31  2  0  0  0  0
 33 28  2  0  0  0  0
 34 35  1  0  0  0  0
 34 33  1  0  0  0  0
 36 35  2  0  0  0  0
 37 36  1  0  0  0  0
 38 37  2  0  0  0  0
 38 39  1  0  0  0  0
 39 34  2  0  0  0  0
M  END
>  <minimizedAffinity>
-7.39370012

$$$$
