
 OpenBabel09122222393D

 39 44  0  0  0  0  0  0  0  0999 V2000
    9.9310    2.2880    1.6720 C   0  0  0  0  0  0  0  0  0  0  0  0
    9.6370    1.3330    0.6900 C   0  0  0  0  0  3  0  0  0  0  0  0
    9.3720    0.0040    1.0430 C   0  0  0  0  0  3  0  0  0  0  0  0
    9.4040   -0.3820    2.3830 C   0  0  0  0  0  0  0  0  0  0  0  0
    9.7490    0.5700    3.3490 C   0  0  0  0  0  0  0  0  0  0  0  0
    9.7900    0.2240    4.6460 F   0  0  0  0  0  0  0  0  0  0  0  0
   10.0150    1.8920    3.0070 C   0  0  0  0  0  3  0  0  0  0  0  0
   10.2030    7.9190   -0.3450 C   0  0  0  0  0  0  0  0  0  0  0  0
   11.1500    8.0790    0.6790 C   0  0  0  0  0  3  0  0  0  0  0  0
   11.5130    7.0280    1.5310 C   0  0  0  0  0  3  0  0  0  0  0  0
   10.8950    5.7880    1.3290 C   0  0  0  0  0  0  0  0  0  0  0  0
    9.9490    5.5920    0.3250 C   0  0  0  0  0  0  0  0  0  0  0  0
    9.5990    6.6580   -0.5180 C   0  0  0  0  0  3  0  0  0  0  0  0
    9.4910    4.2970    0.3300 N   0  0  0  0  0  0  0  0  0  0  0  0
   10.1160    3.6920    1.3190 C   0  0  0  0  0  0  0  0  0  0  0  0
   11.0040    4.5560    1.9400 N   0  0  0  0  0  0  0  0  0  0  0  0
   11.9210    4.1960    3.0200 C   0  0  0  0  0  3  0  0  0  0  0  0
   13.2310    3.5690    2.5150 C   0  0  0  0  0  2  0  0  0  0  0  0
   14.1230    3.1450    3.6810 C   0  0  0  0  0  2  0  0  0  0  0  0
   14.3790    4.3020    4.6430 C   0  0  0  0  0  2  0  0  0  0  0  0
   13.0770    4.9170    5.1490 C   0  0  0  0  0  2  0  0  0  0  0  0
   12.1720    5.3530    3.9970 C   0  0  0  0  0  2  0  0  0  0  0  0
    9.4620    8.8020   -2.4280 O   0  0  0  0  0  0  0  0  0  0  0  0
    9.8420    9.0830   -1.2470 C   0  0  0  0  0  0  0  0  0  0  0  0
    9.9460   10.2520   -0.7600 O   0  0  0  0  0  1  0  0  0  0  0  0
    9.0860   -1.6220    2.8700 O   0  0  0  0  0  0  0  0  0  0  0  0
    9.7920   -2.7660    2.3790 C   0  0  0  0  0  2  0  0  0  0  0  0
    8.9900   -3.6640    1.4470 C   0  0  0  0  0  0  0  0  0  0  0  0
    7.8610   -4.3600    1.9190 C   0  0  0  0  0  3  0  0  0  0  0  0
    7.1030   -5.1680    1.0700 C   0  0  0  0  0  3  0  0  0  0  0  0
    7.4720   -5.3130   -0.2610 C   0  0  0  0  0  3  0  0  0  0  0  0
    8.6080   -4.6610   -0.7390 C   0  0  0  0  0  3  0  0  0  0  0  0
    9.3870   -3.8420    0.0990 C   0  0  0  0  0  0  0  0  0  0  0  0
   10.5990   -3.2210   -0.4510 C   0  0  0  0  0  0  0  0  0  0  0  0
   11.8610   -3.7890   -0.2100 C   0  0  0  0  0  3  0  0  0  0  0  0
   13.0180   -3.2050   -0.7300 C   0  0  0  0  0  3  0  0  0  0  0  0
   12.9270   -2.0470   -1.5010 C   0  0  0  0  0  3  0  0  0  0  0  0
   11.6810   -1.4760   -1.7520 C   0  0  0  0  0  3  0  0  0  0  0  0
   10.5240   -2.0600   -1.2320 C   0  0  0  0  0  3  0  0  0  0  0  0
  1  7  1  0  0  0  0
  2  3  1  0  0  0  0
  2  1  2  0  0  0  0
  3  4  2  0  0  0  0
  4 26  1  0  0  0  0
  4  5  1  0  0  0  0
  5  6  1  0  0  0  0
  7  5  2  0  0  0  0
  8  9  1  0  0  0  0
  9 10  2  0  0  0  0
 11 10  1  0  0  0  0
 11 16  1  0  0  0  0
 12 14  1  0  0  0  0
 12 11  2  0  0  0  0
 13  8  2  0  0  0  0
 13 12  1  0  0  0  0
 14 15  2  0  0  0  0
 15  1  1  0  0  0  0
 15 16  1  0  0  0  0
 16 17  1  0  0  0  0
 17 22  1  0  0  0  0
 18 17  1  0  0  0  0
 18 19  1  0  0  0  0
 19 20  1  0  0  0  0
 20 21  1  0  0  0  0
 22 21  1  0  0  0  0
 23 24  2  0  0  0  0
 24 25  1  0  0  0  0
 24  8  1  0  0  0  0
 27 26  1  0  0  0  0
 28 29  1  0  0  0  0
 28 27  1  0  0  0  0
 30 29  2  0  0  0  0
 31 30  1  0  0  0  0
 32 31  2  0  0  0  0
 32 33  1  0  0  0  0
 33 28  2  0  0  0  0
 34 35  1  0  0  0  0
 34 33  1  0  0  0  0
 36 35  2  0  0  0  0
 37 36  1  0  0  0  0
 38 37  2  0  0  0  0
 38 39  1  0  0  0  0
 39 34  2  0  0  0  0
M  END
>  <minimizedAffinity>
-8.43685818

$$$$
