
 OpenBabel09122222393D

 39 44  0  0  0  0  0  0  0  0999 V2000
   11.7500    3.6710    0.8340 C   0  0  0  0  0  0  0  0  0  0  0  0
   12.2330    3.1980   -0.3930 C   0  0  0  0  0  3  0  0  0  0  0  0
   11.6840    2.0520   -0.9820 C   0  0  0  0  0  3  0  0  0  0  0  0
   10.6510    1.3650   -0.3450 C   0  0  0  0  0  0  0  0  0  0  0  0
   10.2130    1.8190    0.9050 C   0  0  0  0  0  0  0  0  0  0  0  0
    9.2220    1.1750    1.5410 F   0  0  0  0  0  0  0  0  0  0  0  0
   10.7540    2.9550    1.4980 C   0  0  0  0  0  3  0  0  0  0  0  0
   14.1280    8.3430    3.7260 C   0  0  0  0  0  0  0  0  0  0  0  0
   13.4700    9.0950    2.7400 C   0  0  0  0  0  3  0  0  0  0  0  0
   12.7060    8.4960    1.7290 C   0  0  0  0  0  3  0  0  0  0  0  0
   12.6140    7.0980    1.7310 C   0  0  0  0  0  0  0  0  0  0  0  0
   13.2550    6.3190    2.6920 C   0  0  0  0  0  0  0  0  0  0  0  0
   14.0160    6.9390    3.6960 C   0  0  0  0  0  3  0  0  0  0  0  0
   13.0130    4.9830    2.4810 N   0  0  0  0  0  0  0  0  0  0  0  0
   12.2540    4.9150    1.4070 C   0  0  0  0  0  0  0  0  0  0  0  0
   11.9610    6.1840    0.9310 N   0  0  0  0  0  0  0  0  0  0  0  0
   11.0770    6.4830   -0.1940 C   0  0  0  0  0  3  0  0  0  0  0  0
    9.5950    6.5650    0.2080 C   0  0  0  0  0  2  0  0  0  0  0  0
    8.7070    6.8080   -1.0110 C   0  0  0  0  0  2  0  0  0  0  0  0
    9.1530    8.0390   -1.7960 C   0  0  0  0  0  2  0  0  0  0  0  0
   10.6220    7.9510   -2.2010 C   0  0  0  0  0  2  0  0  0  0  0  0
   11.5280    7.7130   -0.9940 C   0  0  0  0  0  2  0  0  0  0  0  0
   14.5170   10.1600    5.2150 O   0  0  0  0  0  1  0  0  0  0  0  0
   14.9420    9.0330    4.8040 C   0  0  0  0  0  0  0  0  0  0  0  0
   15.9870    8.4390    5.2150 O   0  0  0  0  0  0  0  0  0  0  0  0
    9.9740    0.2860   -0.8460 O   0  0  0  0  0  0  0  0  0  0  0  0
   10.4740   -0.3690   -2.0160 C   0  0  0  0  0  2  0  0  0  0  0  0
   11.7790   -1.1310   -1.8180 C   0  0  0  0  0  0  0  0  0  0  0  0
   12.9400   -0.7560   -2.5200 C   0  0  0  0  0  3  0  0  0  0  0  0
   14.1470   -1.4300   -2.3300 C   0  0  0  0  0  3  0  0  0  0  0  0
   14.2110   -2.5050   -1.4530 C   0  0  0  0  0  3  0  0  0  0  0  0
   13.0630   -2.9140   -0.7750 C   0  0  0  0  0  3  0  0  0  0  0  0
   11.8350   -2.2490   -0.9510 C   0  0  0  0  0  0  0  0  0  0  0  0
   10.6510   -2.7570   -0.2470 C   0  0  0  0  0  0  0  0  0  0  0  0
    9.8930   -3.8060   -0.7940 C   0  0  0  0  0  3  0  0  0  0  0  0
    8.7660   -4.2950   -0.1300 C   0  0  0  0  0  3  0  0  0  0  0  0
    8.3850   -3.7450    1.0920 C   0  0  0  0  0  3  0  0  0  0  0  0
    9.1300   -2.7080    1.6500 C   0  0  0  0  0  3  0  0  0  0  0  0
   10.2570   -2.2180    0.9860 C   0  0  0  0  0  3  0  0  0  0  0  0
  1 15  1  0  0  0  0
  1  7  1  0  0  0  0
  2  1  2  0  0  0  0
  3  2  1  0  0  0  0
  3  4  2  0  0  0  0
  4  5  1  0  0  0  0
  5  7  2  0  0  0  0
  5  6  1  0  0  0  0
  8 24  1  0  0  0  0
  9  8  2  0  0  0  0
 10 11  2  0  0  0  0
 10  9  1  0  0  0  0
 11 12  1  0  0  0  0
 12 13  2  0  0  0  0
 13  8  1  0  0  0  0
 14 12  1  0  0  0  0
 15 14  2  0  0  0  0
 16 15  1  0  0  0  0
 16 11  1  0  0  0  0
 17 18  1  0  0  0  0
 17 16  1  0  0  0  0
 19 18  1  0  0  0  0
 20 19  1  0  0  0  0
 21 20  1  0  0  0  0
 21 22  1  0  0  0  0
 22 17  1  0  0  0  0
 24 25  2  0  0  0  0
 24 23  1  0  0  0  0
 26  4  1  0  0  0  0
 27 28  1  0  0  0  0
 27 26  1  0  0  0  0
 28 33  1  0  0  0  0
 29 30  1  0  0  0  0
 29 28  2  0  0  0  0
 30 31  2  0  0  0  0
 31 32  1  0  0  0  0
 33 32  2  0  0  0  0
 33 34  1  0  0  0  0
 34 39  1  0  0  0  0
 35 34  2  0  0  0  0
 35 36  1  0  0  0  0
 36 37  2  0  0  0  0
 37 38  1  0  0  0  0
 39 38  2  0  0  0  0
M  END
>  <minimizedAffinity>
-7.46460056

$$$$
