REMARK  Name = 
REMARK  8 active torsions:
REMARK  status: ('A' for Active; 'I' for Inactive)
REMARK    1  A    between atoms: C_1  and  C_2
REMARK    2  A    between atoms: C_2  and  C_3
REMARK    3  A    between atoms: C_3  and  C_4
REMARK    4  A    between atoms: C_4  and  C_5
REMARK    5  A    between atoms: C_4  and  N_6
REMARK    6  A    between atoms: N_6  and  C_7
REMARK    7  A    between atoms: C_13  and  C_14
REMARK    8  A    between atoms: C_20  and  C_21
REMARK                            x       y       z     vdW  Elec       q    Type
REMARK                         _______ _______ _______ _____ _____    ______ ____
ROOT
ATOM      1  C   UNL     1       2.244   0.336   4.529  0.00  0.00    +0.150 A 
ATOM      2  N   UNL     1       1.896   1.631   4.416  0.00  0.00    -0.219 NA
ATOM      3  C   UNL     1       2.580   2.496   5.165  0.00  0.00    +0.225 A 
ATOM      4  N   UNL     1       3.582   2.194   5.990  0.00  0.00    -0.214 NA
ATOM      5  C   UNL     1       3.924   0.913   6.073  0.00  0.00    +0.184 A 
ATOM      6  N   UNL     1       4.953   0.607   6.867  0.00  0.00    -0.224 NA
ATOM      7  C   UNL     1       5.351  -0.695   6.969  0.00  0.00    +0.099 A 
ATOM      8  C   UNL     1       4.660  -1.717   6.306  0.00  0.00    +0.098 A 
ATOM      9  N   UNL     1       3.621  -1.418   5.485  0.00  0.00    -0.238 NA
ATOM     10  C   UNL     1       3.273  -0.103   5.366  0.00  0.00    +0.148 A 
ENDROOT
BRANCH   7  11
ATOM     11  C   UNL     1       6.569  -0.879   7.780  0.00  0.00    +0.003 A 
ATOM     12  C   UNL     1       7.680  -1.595   7.298  0.00  0.00    +0.010 A 
ATOM     13  C   UNL     1       8.832  -1.753   8.074  0.00  0.00    +0.001 A 
ATOM     14  C   UNL     1       8.899  -1.187   9.344  0.00  0.00    +0.000 A 
ATOM     15  C   UNL     1       7.821  -0.457   9.836  0.00  0.00    +0.001 A 
ATOM     16  C   UNL     1       6.669  -0.301   9.059  0.00  0.00    +0.010 A 
ENDBRANCH   7  11
BRANCH   8  17
ATOM     17  C   UNL     1       4.935  -3.161   6.421  0.00  0.00    +0.002 A 
ATOM     18  C   UNL     1       5.026  -3.962   5.267  0.00  0.00    +0.010 A 
ATOM     19  C   UNL     1       5.279  -5.333   5.354  0.00  0.00    +0.001 A 
ATOM     20  C   UNL     1       5.439  -5.934   6.599  0.00  0.00    +0.000 A 
ATOM     21  C   UNL     1       5.337  -5.167   7.756  0.00  0.00    +0.001 A 
ATOM     22  C   UNL     1       5.081  -3.795   7.668  0.00  0.00    +0.010 A 
ENDBRANCH   8  17
BRANCH   1  23
ATOM     23  N   UNL     1       1.603  -0.602   3.722  0.00  0.00    -0.325 N 
ATOM     24  H   UNL     1       1.669  -1.563   4.045  0.00  0.00    +0.148 HD
BRANCH  23  25
ATOM     25  C   UNL     1       0.607  -0.237   2.730  0.00  0.00    +0.069 C 
ATOM     26  C   UNL     1      -0.772  -0.181   3.385  0.00  0.00    +0.028 C 
BRANCH  25  27
ATOM     27  C   UNL     1       0.670  -1.288   1.603  0.00  0.00    +0.022 C 
BRANCH  27  29
ATOM     28  C   UNL     1       0.176   0.269  -0.358  0.00  0.00    +0.004 C 
ATOM     29  C   UNL     1      -0.209  -1.003   0.382  0.00  0.00    -0.002 C 
ENDBRANCH  27  29
ENDBRANCH  25  27
ENDBRANCH  23  25
ENDBRANCH   1  23
TORSDOF 6
