
 OpenBabel09122222393D

 29 32  0  0  1  0  0  0  0  0999 V2000
    5.8320   -6.0590    1.5010 C   0  0  0  0  0  0  0  0  0  0  0  0
    5.2520   -6.9000    0.6250 N   0  0  0  0  0  0  0  0  0  0  0  0
    5.7680   -6.9250   -0.6040 C   0  0  0  0  0  3  0  0  0  0  0  0
    6.8110   -6.2120   -1.0280 N   0  0  0  0  0  0  0  0  0  0  0  0
    7.3820   -5.4020   -0.1440 C   0  0  0  0  0  0  0  0  0  0  0  0
    8.4520   -4.7140   -0.5500 N   0  0  0  0  0  0  0  0  0  0  0  0
    9.0820   -3.8820    0.3310 C   0  0  0  0  0  0  0  0  0  0  0  0
    8.5880   -3.6930    1.6280 C   0  0  0  0  0  0  0  0  0  0  0  0
    7.5100   -4.3970    2.0570 N   0  0  0  0  0  0  0  0  0  0  0  0
    6.9260   -5.2550    1.1700 C   0  0  0  0  0  0  0  0  0  0  0  0
   10.3160   -3.2780   -0.2060 C   0  0  0  0  0  0  0  0  0  0  0  0
   11.5800   -3.8560    0.0100 C   0  0  0  0  0  3  0  0  0  0  0  0
   12.7400   -3.2770   -0.5140 C   0  0  0  0  0  3  0  0  0  0  0  0
   12.6560   -2.1140   -1.2740 C   0  0  0  0  0  3  0  0  0  0  0  0
   11.4150   -1.5330   -1.5190 C   0  0  0  0  0  3  0  0  0  0  0  0
   10.2560   -2.1130   -0.9930 C   0  0  0  0  0  3  0  0  0  0  0  0
    9.1230   -2.7500    2.6270 C   0  0  0  0  0  0  0  0  0  0  0  0
    9.6860   -3.2270    3.8260 C   0  0  0  0  0  3  0  0  0  0  0  0
   10.1920   -2.3510    4.7880 C   0  0  0  0  0  3  0  0  0  0  0  0
   10.1400   -0.9760    4.5750 C   0  0  0  0  0  3  0  0  0  0  0  0
    9.5740   -0.4790    3.4050 C   0  0  0  0  0  3  0  0  0  0  0  0
    9.0650   -1.3570    2.4430 C   0  0  0  0  0  3  0  0  0  0  0  0
    5.3710   -6.0400    2.8160 N   0  0  0  0  0  0  0  0  0  0  0  0
    6.0980   -6.0290    3.5250 H   0  0  0  0  0  0  0  0  0  0  0  0
    4.0090   -5.6780    3.1670 C   0  0  2  0  0  3  0  0  0  0  0  0
    3.9700   -4.2240    3.6340 C   0  0  0  0  0  1  0  0  0  0  0  0
    3.5420   -6.6520    4.2680 C   0  0  0  0  0  2  0  0  0  0  0  0
    3.0560   -8.8310    3.0330 C   0  0  0  0  0  1  0  0  0  0  0  0
    3.9240   -8.1200    4.0590 C   0  0  0  0  0  2  0  0  0  0  0  0
  1 23  1  0  0  0  0
  2  1  1  0  0  0  0
  3  2  2  0  0  0  0
  4  3  1  0  0  0  0
  4  5  2  0  0  0  0
  5 10  1  0  0  0  0
  6  5  1  0  0  0  0
  6  7  2  0  0  0  0
  7  8  1  0  0  0  0
  8  9  2  0  0  0  0
  8 17  1  0  0  0  0
 10  1  2  0  0  0  0
 10  9  1  0  0  0  0
 11 12  1  0  0  0  0
 11  7  1  0  0  0  0
 13 12  2  0  0  0  0
 14 13  1  0  0  0  0
 15 14  2  0  0  0  0
 15 16  1  0  0  0  0
 16 11  2  0  0  0  0
 17 18  1  0  0  0  0
 18 19  2  0  0  0  0
 20 19  1  0  0  0  0
 21 20  2  0  0  0  0
 22 17  2  0  0  0  0
 22 21  1  0  0  0  0
 23 25  1  0  0  0  0
 23 24  1  0  0  0  0
 25 26  1  1  0  0  0
 25 27  1  0  0  0  0
 28 29  1  0  0  0  0
 29 27  1  0  0  0  0
M  END
>  <minimizedAffinity>
-7.32856369

$$$$
