
 OpenBabel09122222393D

 29 32  0  0  1  0  0  0  0  0999 V2000
    9.3970   -2.7910    4.4210 C   0  0  0  0  0  0  0  0  0  0  0  0
   10.6400   -2.4140    4.7750 N   0  0  0  0  0  0  0  0  0  0  0  0
   10.8130   -2.0710    6.0520 C   0  0  0  0  0  3  0  0  0  0  0  0
    9.8780   -2.0900    7.0000 N   0  0  0  0  0  0  0  0  0  0  0  0
    8.6630   -2.4840    6.6350 C   0  0  0  0  0  0  0  0  0  0  0  0
    7.7290   -2.5440    7.5880 N   0  0  0  0  0  0  0  0  0  0  0  0
    6.4710   -2.9600    7.2620 C   0  0  0  0  0  0  0  0  0  0  0  0
    6.1290   -3.2630    5.9380 C   0  0  0  0  0  0  0  0  0  0  0  0
    7.0720   -3.2190    4.9620 N   0  0  0  0  0  0  0  0  0  0  0  0
    8.3330   -2.8440    5.3250 C   0  0  0  0  0  0  0  0  0  0  0  0
    5.5730   -3.0960    8.4250 C   0  0  0  0  0  0  0  0  0  0  0  0
    5.4250   -4.3160    9.1090 C   0  0  0  0  0  3  0  0  0  0  0  0
    4.5780   -4.4280   10.2150 C   0  0  0  0  0  3  0  0  0  0  0  0
    3.8720   -3.3160   10.6670 C   0  0  0  0  0  3  0  0  0  0  0  0
    4.0170   -2.0920   10.0190 C   0  0  0  0  0  3  0  0  0  0  0  0
    4.8630   -1.9830    8.9120 C   0  0  0  0  0  3  0  0  0  0  0  0
    4.7840   -3.6240    5.4540 C   0  0  0  0  0  0  0  0  0  0  0  0
    3.7900   -2.6360    5.3130 C   0  0  0  0  0  3  0  0  0  0  0  0
    2.5070   -2.9580    4.8630 C   0  0  0  0  0  3  0  0  0  0  0  0
    2.1890   -4.2760    4.5510 C   0  0  0  0  0  3  0  0  0  0  0  0
    3.1480   -5.2740    4.6990 C   0  0  0  0  0  3  0  0  0  0  0  0
    4.4310   -4.9510    5.1520 C   0  0  0  0  0  3  0  0  0  0  0  0
    9.1760   -3.2190    3.1130 N   0  0  0  0  0  0  0  0  0  0  0  0
    8.4590   -3.9320    3.0100 H   0  0  0  0  0  0  0  0  0  0  0  0
    9.6250   -2.4700    1.9530 C   0  0  2  0  0  3  0  0  0  0  0  0
    8.9380   -1.1060    1.9260 C   0  0  0  0  0  1  0  0  0  0  0  0
    9.2930   -3.3100    0.7030 C   0  0  0  0  0  2  0  0  0  0  0  0
   10.9490   -2.3460   -0.9830 C   0  0  0  0  0  1  0  0  0  0  0  0
   10.4660   -3.5840   -0.2430 C   0  0  0  0  0  2  0  0  0  0  0  0
  1  2  1  0  0  0  0
  1 10  2  0  0  0  0
  2  3  2  0  0  0  0
  3  4  1  0  0  0  0
  5  4  2  0  0  0  0
  5  6  1  0  0  0  0
  7  6  2  0  0  0  0
  7 11  1  0  0  0  0
  8  7  1  0  0  0  0
  9 10  1  0  0  0  0
  9  8  2  0  0  0  0
 10  5  1  0  0  0  0
 11 16  2  0  0  0  0
 11 12  1  0  0  0  0
 12 13  2  0  0  0  0
 13 14  1  0  0  0  0
 15 14  2  0  0  0  0
 16 15  1  0  0  0  0
 17  8  1  0  0  0  0
 18 17  1  0  0  0  0
 19 18  2  0  0  0  0
 20 21  2  0  0  0  0
 20 19  1  0  0  0  0
 21 22  1  0  0  0  0
 22 17  2  0  0  0  0
 23  1  1  0  0  0  0
 24 23  1  0  0  0  0
 25 26  1  6  0  0  0
 25 23  1  0  0  0  0
 27 25  1  0  0  0  0
 28 29  1  0  0  0  0
 29 27  1  0  0  0  0
M  END
>  <minimizedAffinity>
-6.57399225

$$$$
