
 OpenBabel09122218123D

 29 32  0  0  1  0  0  0  0  0999 V2000
    5.8320   -6.0590    1.5010 C   0  0  0  0  0  0  0  0  0  0  0  0
    5.2520   -6.9000    0.6250 N   0  0  0  0  0  0  0  0  0  0  0  0
    5.7680   -6.9250   -0.6040 C   0  0  0  0  0  3  0  0  0  0  0  0
    6.8110   -6.2120   -1.0280 N   0  0  0  0  0  0  0  0  0  0  0  0
    7.3820   -5.4020   -0.1440 C   0  0  0  0  0  0  0  0  0  0  0  0
    8.4520   -4.7140   -0.5500 N   0  0  0  0  0  0  0  0  0  0  0  0
    9.0820   -3.8820    0.3310 C   0  0  0  0  0  0  0  0  0  0  0  0
    8.5880   -3.6930    1.6280 C   0  0  0  0  0  0  0  0  0  0  0  0
    7.5100   -4.3970    2.0570 N   0  0  0  0  0  0  0  0  0  0  0  0
    6.9260   -5.2550    1.1700 C   0  0  0  0  0  0  0  0  0  0  0  0
   10.3160   -3.2780   -0.2060 C   0  0  0  0  0  0  0  0  0  0  0  0
   11.5800   -3.8560    0.0100 C   0  0  0  0  0  3  0  0  0  0  0  0
   12.7400   -3.2770   -0.5140 C   0  0  0  0  0  3  0  0  0  0  0  0
   12.6560   -2.1140   -1.2740 C   0  0  0  0  0  3  0  0  0  0  0  0
   11.4150   -1.5330   -1.5190 C   0  0  0  0  0  3  0  0  0  0  0  0
   10.2560   -2.1130   -0.9930 C   0  0  0  0  0  3  0  0  0  0  0  0
    9.1230   -2.7500    2.6270 C   0  0  0  0  0  0  0  0  0  0  0  0
    9.6860   -3.2270    3.8260 C   0  0  0  0  0  3  0  0  0  0  0  0
   10.1920   -2.3510    4.7880 C   0  0  0  0  0  3  0  0  0  0  0  0
   10.1400   -0.9760    4.5750 C   0  0  0  0  0  3  0  0  0  0  0  0
    9.5740   -0.4790    3.4050 C   0  0  0  0  0  3  0  0  0  0  0  0
    9.0650   -1.3570    2.4430 C   0  0  0  0  0  3  0  0  0  0  0  0
    5.3710   -6.0400    2.8160 N   0  0  0  0  0  0  0  0  0  0  0  0
    6.0980   -6.0290    3.5250 H   0  0  0  0  0  0  0  0  0  0  0  0
    4.0090   -5.6780    3.1670 C   0  0  2  0  0  3  0  0  0  0  0  0
    3.9700   -4.2240    3.6340 C   0  0  0  0  0  1  0  0  0  0  0  0
    3.5420   -6.6520    4.2680 C   0  0  0  0  0  2  0  0  0  0  0  0
    3.0560   -8.8310    3.0330 C   0  0  0  0  0  1  0  0  0  0  0  0
    3.9240   -8.1200    4.0590 C   0  0  0  0  0  2  0  0  0  0  0  0
  1 23  1  0  0  0  0
  2  1  1  0  0  0  0
  3  2  2  0  0  0  0
  4  3  1  0  0  0  0
  4  5  2  0  0  0  0
  5 10  1  0  0  0  0
  6  5  1  0  0  0  0
  6  7  2  0  0  0  0
  7  8  1  0  0  0  0
  8  9  2  0  0  0  0
  8 17  1  0  0  0  0
 10  1  2  0  0  0  0
 10  9  1  0  0  0  0
 11 12  1  0  0  0  0
 11  7  1  0  0  0  0
 13 12  2  0  0  0  0
 14 13  1  0  0  0  0
 15 14  2  0  0  0  0
 15 16  1  0  0  0  0
 16 11  2  0  0  0  0
 17 18  1  0  0  0  0
 18 19  2  0  0  0  0
 20 19  1  0  0  0  0
 21 20  2  0  0  0  0
 22 17  2  0  0  0  0
 22 21  1  0  0  0  0
 23 25  1  0  0  0  0
 23 24  1  0  0  0  0
 25 26  1  1  0  0  0
 25 27  1  0  0  0  0
 28 29  1  0  0  0  0
 29 27  1  0  0  0  0
M  END
>  <minimizedAffinity>
-7.32856369

$$$$

 OpenBabel09122218123D

 29 32  0  0  1  0  0  0  0  0999 V2000
    8.1270   -2.8350    5.7830 C   0  0  0  0  0  0  0  0  0  0  0  0
    8.7560   -2.1870    6.7810 N   0  0  0  0  0  0  0  0  0  0  0  0
    9.9330   -1.6370    6.4810 C   0  0  0  0  0  3  0  0  0  0  0  0
   10.5220   -1.6550    5.2860 N   0  0  0  0  0  0  0  0  0  0  0  0
    9.8770   -2.2830    4.3090 C   0  0  0  0  0  0  0  0  0  0  0  0
   10.4420   -2.2710    3.1000 N   0  0  0  0  0  0  0  0  0  0  0  0
    9.8060   -2.8890    2.0610 C   0  0  0  0  0  0  0  0  0  0  0  0
    8.6060   -3.5840    2.2590 C   0  0  0  0  0  0  0  0  0  0  0  0
    8.0140   -3.5920    3.4800 N   0  0  0  0  0  0  0  0  0  0  0  0
    8.6490   -2.9280    4.4900 C   0  0  0  0  0  0  0  0  0  0  0  0
   10.4750   -2.6990    0.7610 C   0  0  0  0  0  0  0  0  0  0  0  0
   11.4490   -3.5970    0.2900 C   0  0  0  0  0  3  0  0  0  0  0  0
   12.0680   -3.4100   -0.9500 C   0  0  0  0  0  3  0  0  0  0  0  0
   11.7150   -2.3260   -1.7480 C   0  0  0  0  0  3  0  0  0  0  0  0
   10.7390   -1.4330   -1.3130 C   0  0  0  0  0  3  0  0  0  0  0  0
   10.1220   -1.6210   -0.0730 C   0  0  0  0  0  3  0  0  0  0  0  0
    7.8850   -4.3680    1.2390 C   0  0  0  0  0  0  0  0  0  0  0  0
    6.7770   -5.1580    1.6020 C   0  0  0  0  0  3  0  0  0  0  0  0
    6.0840   -5.9140    0.6530 C   0  0  0  0  0  3  0  0  0  0  0  0
    6.4890   -5.9010   -0.6780 C   0  0  0  0  0  3  0  0  0  0  0  0
    7.5910   -5.1410   -1.0590 C   0  0  0  0  0  3  0  0  0  0  0  0
    8.2860   -4.3870   -0.1080 C   0  0  0  0  0  3  0  0  0  0  0  0
    6.8650   -3.3740    6.0260 N   0  0  0  0  0  0  0  0  0  0  0  0
    6.8310   -4.3890    6.0590 H   0  0  0  0  0  0  0  0  0  0  0  0
    5.7670   -2.5940    6.5670 C   0  0  2  0  0  3  0  0  0  0  0  0
    5.5560   -2.9550    8.0360 C   0  0  0  0  0  1  0  0  0  0  0  0
    4.5190   -2.8960    5.7120 C   0  0  0  0  0  2  0  0  0  0  0  0
    3.7750   -3.9060    3.4890 C   0  0  0  0  0  1  0  0  0  0  0  0
    4.6630   -4.0500    4.7160 C   0  0  0  0  0  2  0  0  0  0  0  0
  1 23  1  0  0  0  0
  1  2  1  0  0  0  0
  3  2  2  0  0  0  0
  4  3  1  0  0  0  0
  5 10  1  0  0  0  0
  5  4  2  0  0  0  0
  6  5  1  0  0  0  0
  7  8  1  0  0  0  0
  7  6  2  0  0  0  0
  8  9  2  0  0  0  0
  9 10  1  0  0  0  0
 10  1  2  0  0  0  0
 11  7  1  0  0  0  0
 12 11  1  0  0  0  0
 13 12  2  0  0  0  0
 14 15  2  0  0  0  0
 14 13  1  0  0  0  0
 15 16  1  0  0  0  0
 16 11  2  0  0  0  0
 17 18  1  0  0  0  0
 17  8  1  0  0  0  0
 19 18  2  0  0  0  0
 20 19  1  0  0  0  0
 21 20  2  0  0  0  0
 21 22  1  0  0  0  0
 22 17  2  0  0  0  0
 23 24  1  0  0  0  0
 23 25  1  0  0  0  0
 25 26  1  1  0  0  0
 27 25  1  0  0  0  0
 28 29  1  0  0  0  0
 29 27  1  0  0  0  0
M  END
>  <minimizedAffinity>
-6.96827936

$$$$

 OpenBabel09122218123D

 29 32  0  0  1  0  0  0  0  0999 V2000
    5.3180   -7.2430    2.4710 C   0  0  0  0  0  0  0  0  0  0  0  0
    5.6960   -8.4610    2.0400 N   0  0  0  0  0  0  0  0  0  0  0  0
    5.1650   -9.5060    2.6740 C   0  0  0  0  0  3  0  0  0  0  0  0
    4.2850   -9.4490    3.6730 N   0  0  0  0  0  0  0  0  0  0  0  0
    3.9090   -8.2390    4.0720 C   0  0  0  0  0  0  0  0  0  0  0  0
    2.9970   -8.1750    5.0450 N   0  0  0  0  0  0  0  0  0  0  0  0
    2.5670   -6.9520    5.4750 C   0  0  0  0  0  0  0  0  0  0  0  0
    3.1120   -5.7700    4.9560 C   0  0  0  0  0  0  0  0  0  0  0  0
    4.0290   -5.8220    3.9560 N   0  0  0  0  0  0  0  0  0  0  0  0
    4.4070   -7.0580    3.5150 C   0  0  0  0  0  0  0  0  0  0  0  0
    1.4760   -7.0230    6.4640 C   0  0  0  0  0  0  0  0  0  0  0  0
    0.1380   -7.2220    6.0800 C   0  0  0  0  0  3  0  0  0  0  0  0
   -0.8850   -7.2980    7.0300 C   0  0  0  0  0  3  0  0  0  0  0  0
   -0.5860   -7.1860    8.3850 C   0  0  0  0  0  3  0  0  0  0  0  0
    0.7320   -7.0090    8.7920 C   0  0  0  0  0  3  0  0  0  0  0  0
    1.7540   -6.9320    7.8410 C   0  0  0  0  0  3  0  0  0  0  0  0
    2.8000   -4.4030    5.4110 C   0  0  0  0  0  0  0  0  0  0  0  0
    2.0970   -3.5170    4.5720 C   0  0  0  0  0  3  0  0  0  0  0  0
    1.7980   -2.2150    4.9810 C   0  0  0  0  0  3  0  0  0  0  0  0
    2.2010   -1.7700    6.2360 C   0  0  0  0  0  3  0  0  0  0  0  0
    2.9110   -2.6210    7.0780 C   0  0  0  0  0  3  0  0  0  0  0  0
    3.2130   -3.9230    6.6660 C   0  0  0  0  0  3  0  0  0  0  0  0
    5.7950   -6.1180    1.8020 N   0  0  0  0  0  0  0  0  0  0  0  0
    6.6180   -5.6900    2.2150 H   0  0  0  0  0  0  0  0  0  0  0  0
    5.4160   -5.7940    0.4380 C   0  0  2  0  0  3  0  0  0  0  0  0
    4.4460   -6.8500   -0.0890 C   0  0  0  0  0  1  0  0  0  0  0  0
    6.7100   -5.7280   -0.3980 C   0  0  0  0  0  2  0  0  0  0  0  0
    8.8310   -4.3180   -0.2360 C   0  0  0  0  0  1  0  0  0  0  0  0
    7.9900   -5.4230    0.3850 C   0  0  0  0  0  2  0  0  0  0  0  0
  1 10  2  0  0  0  0
  2  1  1  0  0  0  0
  2  3  2  0  0  0  0
  3  4  1  0  0  0  0
  4  5  2  0  0  0  0
  5  6  1  0  0  0  0
  6  7  2  0  0  0  0
  7 11  1  0  0  0  0
  8 17  1  0  0  0  0
  8  7  1  0  0  0  0
  9  8  2  0  0  0  0
 10  9  1  0  0  0  0
 10  5  1  0  0  0  0
 11 16  1  0  0  0  0
 12 11  2  0  0  0  0
 12 13  1  0  0  0  0
 13 14  2  0  0  0  0
 14 15  1  0  0  0  0
 16 15  2  0  0  0  0
 17 22  1  0  0  0  0
 18 19  1  0  0  0  0
 18 17  2  0  0  0  0
 19 20  2  0  0  0  0
 20 21  1  0  0  0  0
 22 21  2  0  0  0  0
 23 24  1  0  0  0  0
 23  1  1  0  0  0  0
 25 26  1  6  0  0  0
 25 23  1  0  0  0  0
 27 29  1  0  0  0  0
 27 25  1  0  0  0  0
 28 29  1  0  0  0  0
M  END
>  <minimizedAffinity>
-6.84257126

$$$$

 OpenBabel09122218123D

 29 32  0  0  1  0  0  0  0  0999 V2000
    9.3680   -2.8110    4.5530 C   0  0  0  0  0  0  0  0  0  0  0  0
   10.5610   -2.2480    4.8200 N   0  0  0  0  0  0  0  0  0  0  0  0
   10.6250   -1.4850    5.9120 C   0  0  0  0  0  3  0  0  0  0  0  0
    9.6260   -1.2520    6.7620 N   0  0  0  0  0  0  0  0  0  0  0  0
    8.4620   -1.8320    6.4920 C   0  0  0  0  0  0  0  0  0  0  0  0
    7.4670   -1.6370    7.3610 N   0  0  0  0  0  0  0  0  0  0  0  0
    6.2580   -2.2280    7.1330 C   0  0  0  0  0  0  0  0  0  0  0  0
    6.0280   -2.9820    5.9750 C   0  0  0  0  0  0  0  0  0  0  0  0
    7.0350   -3.2000    5.0910 N   0  0  0  0  0  0  0  0  0  0  0  0
    8.2460   -2.6340    5.3670 C   0  0  0  0  0  0  0  0  0  0  0  0
    5.2870   -2.0310    8.2260 C   0  0  0  0  0  0  0  0  0  0  0  0
    5.2310   -2.8960    9.3330 C   0  0  0  0  0  3  0  0  0  0  0  0
    4.3130   -2.6910   10.3670 C   0  0  0  0  0  3  0  0  0  0  0  0
    3.4400   -1.6080   10.3180 C   0  0  0  0  0  3  0  0  0  0  0  0
    3.4890   -0.7250    9.2430 C   0  0  0  0  0  3  0  0  0  0  0  0
    4.4070   -0.9330    8.2090 C   0  0  0  0  0  3  0  0  0  0  0  0
    4.7410   -3.5800    5.5750 C   0  0  0  0  0  0  0  0  0  0  0  0
    3.8080   -2.8310    4.8330 C   0  0  0  0  0  3  0  0  0  0  0  0
    2.5800   -3.3770    4.4500 C   0  0  0  0  0  3  0  0  0  0  0  0
    2.2560   -4.6820    4.8090 C   0  0  0  0  0  3  0  0  0  0  0  0
    3.1540   -5.4380    5.5570 C   0  0  0  0  0  3  0  0  0  0  0  0
    4.3820   -4.8900    5.9420 C   0  0  0  0  0  3  0  0  0  0  0  0
    9.2630   -3.6670    3.4590 N   0  0  0  0  0  0  0  0  0  0  0  0
    9.3630   -4.6550    3.6760 H   0  0  0  0  0  0  0  0  0  0  0  0
    8.6830   -3.2580    2.1920 C   0  0  2  0  0  3  0  0  0  0  0  0
    8.0160   -4.4590    1.5220 C   0  0  0  0  0  1  0  0  0  0  0  0
    9.8200   -2.6730    1.3300 C   0  0  0  0  0  2  0  0  0  0  0  0
    9.0450   -0.2930    1.8290 C   0  0  0  0  0  1  0  0  0  0  0  0
    9.5790   -1.2620    0.7860 C   0  0  0  0  0  2  0  0  0  0  0  0
  1  2  1  0  0  0  0
  1 10  2  0  0  0  0
  2  3  2  0  0  0  0
  3  4  1  0  0  0  0
  5  4  2  0  0  0  0
  5  6  1  0  0  0  0
  7  6  2  0  0  0  0
  7 11  1  0  0  0  0
  8  7  1  0  0  0  0
  9 10  1  0  0  0  0
  9  8  2  0  0  0  0
 10  5  1  0  0  0  0
 11 12  1  0  0  0  0
 12 13  2  0  0  0  0
 14 13  1  0  0  0  0
 15 14  2  0  0  0  0
 16 11  2  0  0  0  0
 16 15  1  0  0  0  0
 17 22  1  0  0  0  0
 17  8  1  0  0  0  0
 18 17  2  0  0  0  0
 19 20  2  0  0  0  0
 19 18  1  0  0  0  0
 20 21  1  0  0  0  0
 21 22  2  0  0  0  0
 23 24  1  0  0  0  0
 23  1  1  0  0  0  0
 25 26  1  6  0  0  0
 25 23  1  0  0  0  0
 27 25  1  0  0  0  0
 29 27  1  0  0  0  0
 29 28  1  0  0  0  0
M  END
>  <minimizedAffinity>
-6.74207973

$$$$

 OpenBabel09122218123D

 29 32  0  0  1  0  0  0  0  0999 V2000
    5.6290   -7.3810    2.4450 C   0  0  0  0  0  0  0  0  0  0  0  0
    6.5540   -7.0570    1.5220 N   0  0  0  0  0  0  0  0  0  0  0  0
    6.7940   -5.7560    1.3560 C   0  0  0  0  0  3  0  0  0  0  0  0
    6.2200   -4.7620    2.0320 N   0  0  0  0  0  0  0  0  0  0  0  0
    5.3250   -5.1030    2.9530 C   0  0  0  0  0  0  0  0  0  0  0  0
    4.7740   -4.1150    3.6630 N   0  0  0  0  0  0  0  0  0  0  0  0
    3.8630   -4.4200    4.6320 C   0  0  0  0  0  0  0  0  0  0  0  0
    3.4510   -5.7410    4.8490 C   0  0  0  0  0  0  0  0  0  0  0  0
    4.0130   -6.7560    4.1430 N   0  0  0  0  0  0  0  0  0  0  0  0
    4.9560   -6.4270    3.2120 C   0  0  0  0  0  0  0  0  0  0  0  0
    3.4250   -3.2530    5.4200 C   0  0  0  0  0  0  0  0  0  0  0  0
    2.2120   -2.5910    5.1540 C   0  0  0  0  0  3  0  0  0  0  0  0
    1.8050   -1.4910    5.9150 C   0  0  0  0  0  3  0  0  0  0  0  0
    2.5980   -1.0410    6.9670 C   0  0  0  0  0  3  0  0  0  0  0  0
    3.7920   -1.6910    7.2640 C   0  0  0  0  0  3  0  0  0  0  0  0
    4.1990   -2.7890    6.5000 C   0  0  0  0  0  3  0  0  0  0  0  0
    2.4060   -6.1760    5.7930 C   0  0  0  0  0  0  0  0  0  0  0  0
    2.6610   -6.1980    7.1770 C   0  0  0  0  0  3  0  0  0  0  0  0
    1.6870   -6.6130    8.0880 C   0  0  0  0  0  3  0  0  0  0  0  0
    0.4380   -7.0230    7.6330 C   0  0  0  0  0  3  0  0  0  0  0  0
    0.1650   -7.0270    6.2680 C   0  0  0  0  0  3  0  0  0  0  0  0
    1.1420   -6.6140    5.3560 C   0  0  0  0  0  3  0  0  0  0  0  0
    5.3850   -8.7280    2.7030 N   0  0  0  0  0  0  0  0  0  0  0  0
    5.7580   -9.0710    3.5840 H   0  0  0  0  0  0  0  0  0  0  0  0
    4.3740   -9.4940    1.9960 C   0  0  2  0  0  3  0  0  0  0  0  0
    3.7370   -8.6250    0.9130 C   0  0  0  0  0  1  0  0  0  0  0  0
    3.3410   -9.9690    3.0380 C   0  0  0  0  0  2  0  0  0  0  0  0
    0.9170   -9.9580    3.8390 C   0  0  0  0  0  1  0  0  0  0  0  0
    1.8740   -9.7070    2.6840 C   0  0  0  0  0  2  0  0  0  0  0  0
  1 23  1  0  0  0  0
  1 10  2  0  0  0  0
  2  1  1  0  0  0  0
  3  2  2  0  0  0  0
  3  4  1  0  0  0  0
  4  5  2  0  0  0  0
  5 10  1  0  0  0  0
  5  6  1  0  0  0  0
  6  7  2  0  0  0  0
  7  8  1  0  0  0  0
  7 11  1  0  0  0  0
  8 17  1  0  0  0  0
  9  8  2  0  0  0  0
 10  9  1  0  0  0  0
 11 16  1  0  0  0  0
 12 11  2  0  0  0  0
 12 13  1  0  0  0  0
 13 14  2  0  0  0  0
 14 15  1  0  0  0  0
 16 15  2  0  0  0  0
 17 18  1  0  0  0  0
 18 19  2  0  0  0  0
 20 19  1  0  0  0  0
 21 20  2  0  0  0  0
 22 17  2  0  0  0  0
 22 21  1  0  0  0  0
 23 24  1  0  0  0  0
 25 26  1  6  0  0  0
 25 23  1  0  0  0  0
 25 27  1  0  0  0  0
 29 27  1  0  0  0  0
 29 28  1  0  0  0  0
M  END
>  <minimizedAffinity>
-6.68264294

$$$$

 OpenBabel09122218123D

 29 32  0  0  1  0  0  0  0  0999 V2000
    9.3970   -2.7910    4.4210 C   0  0  0  0  0  0  0  0  0  0  0  0
   10.6400   -2.4140    4.7750 N   0  0  0  0  0  0  0  0  0  0  0  0
   10.8130   -2.0710    6.0520 C   0  0  0  0  0  3  0  0  0  0  0  0
    9.8780   -2.0900    7.0000 N   0  0  0  0  0  0  0  0  0  0  0  0
    8.6630   -2.4840    6.6350 C   0  0  0  0  0  0  0  0  0  0  0  0
    7.7290   -2.5440    7.5880 N   0  0  0  0  0  0  0  0  0  0  0  0
    6.4710   -2.9600    7.2620 C   0  0  0  0  0  0  0  0  0  0  0  0
    6.1290   -3.2630    5.9380 C   0  0  0  0  0  0  0  0  0  0  0  0
    7.0720   -3.2190    4.9620 N   0  0  0  0  0  0  0  0  0  0  0  0
    8.3330   -2.8440    5.3250 C   0  0  0  0  0  0  0  0  0  0  0  0
    5.5730   -3.0960    8.4250 C   0  0  0  0  0  0  0  0  0  0  0  0
    5.4250   -4.3160    9.1090 C   0  0  0  0  0  3  0  0  0  0  0  0
    4.5780   -4.4280   10.2150 C   0  0  0  0  0  3  0  0  0  0  0  0
    3.8720   -3.3160   10.6670 C   0  0  0  0  0  3  0  0  0  0  0  0
    4.0170   -2.0920   10.0190 C   0  0  0  0  0  3  0  0  0  0  0  0
    4.8630   -1.9830    8.9120 C   0  0  0  0  0  3  0  0  0  0  0  0
    4.7840   -3.6240    5.4540 C   0  0  0  0  0  0  0  0  0  0  0  0
    3.7900   -2.6360    5.3130 C   0  0  0  0  0  3  0  0  0  0  0  0
    2.5070   -2.9580    4.8630 C   0  0  0  0  0  3  0  0  0  0  0  0
    2.1890   -4.2760    4.5510 C   0  0  0  0  0  3  0  0  0  0  0  0
    3.1480   -5.2740    4.6990 C   0  0  0  0  0  3  0  0  0  0  0  0
    4.4310   -4.9510    5.1520 C   0  0  0  0  0  3  0  0  0  0  0  0
    9.1760   -3.2190    3.1130 N   0  0  0  0  0  0  0  0  0  0  0  0
    8.4590   -3.9320    3.0100 H   0  0  0  0  0  0  0  0  0  0  0  0
    9.6250   -2.4700    1.9530 C   0  0  2  0  0  3  0  0  0  0  0  0
    8.9380   -1.1060    1.9260 C   0  0  0  0  0  1  0  0  0  0  0  0
    9.2930   -3.3100    0.7030 C   0  0  0  0  0  2  0  0  0  0  0  0
   10.9490   -2.3460   -0.9830 C   0  0  0  0  0  1  0  0  0  0  0  0
   10.4660   -3.5840   -0.2430 C   0  0  0  0  0  2  0  0  0  0  0  0
  1  2  1  0  0  0  0
  1 10  2  0  0  0  0
  2  3  2  0  0  0  0
  3  4  1  0  0  0  0
  5  4  2  0  0  0  0
  5  6  1  0  0  0  0
  7  6  2  0  0  0  0
  7 11  1  0  0  0  0
  8  7  1  0  0  0  0
  9 10  1  0  0  0  0
  9  8  2  0  0  0  0
 10  5  1  0  0  0  0
 11 16  2  0  0  0  0
 11 12  1  0  0  0  0
 12 13  2  0  0  0  0
 13 14  1  0  0  0  0
 15 14  2  0  0  0  0
 16 15  1  0  0  0  0
 17  8  1  0  0  0  0
 18 17  1  0  0  0  0
 19 18  2  0  0  0  0
 20 21  2  0  0  0  0
 20 19  1  0  0  0  0
 21 22  1  0  0  0  0
 22 17  2  0  0  0  0
 23  1  1  0  0  0  0
 24 23  1  0  0  0  0
 25 26  1  6  0  0  0
 25 23  1  0  0  0  0
 27 25  1  0  0  0  0
 28 29  1  0  0  0  0
 29 27  1  0  0  0  0
M  END
>  <minimizedAffinity>
-6.57399225

$$$$

 OpenBabel09122218123D

 29 32  0  0  1  0  0  0  0  0999 V2000
    8.8050   -2.7350    1.6380 C   0  0  0  0  0  0  0  0  0  0  0  0
    9.8150   -2.8060    0.7500 N   0  0  0  0  0  0  0  0  0  0  0  0
    9.9020   -3.9320    0.0410 C   0  0  0  0  0  3  0  0  0  0  0  0
    9.0720   -4.9710    0.1190 N   0  0  0  0  0  0  0  0  0  0  0  0
    8.0710   -4.8740    0.9870 C   0  0  0  0  0  0  0  0  0  0  0  0
    7.2120   -5.8950    1.0430 N   0  0  0  0  0  0  0  0  0  0  0  0
    6.1570   -5.8310    1.9070 C   0  0  0  0  0  0  0  0  0  0  0  0
    5.9980   -4.7440    2.7760 C   0  0  0  0  0  0  0  0  0  0  0  0
    6.8570   -3.6940    2.7200 N   0  0  0  0  0  0  0  0  0  0  0  0
    7.8760   -3.7640    1.8140 C   0  0  0  0  0  0  0  0  0  0  0  0
    5.2210   -6.9640    1.7830 C   0  0  0  0  0  0  0  0  0  0  0  0
    4.3580   -7.0960    0.6790 C   0  0  0  0  0  3  0  0  0  0  0  0
    3.4830   -8.1810    0.5700 C   0  0  0  0  0  3  0  0  0  0  0  0
    3.4640   -9.1620    1.5580 C   0  0  0  0  0  3  0  0  0  0  0  0
    4.3210   -9.0650    2.6490 C   0  0  0  0  0  3  0  0  0  0  0  0
    5.1950   -7.9780    2.7580 C   0  0  0  0  0  3  0  0  0  0  0  0
    4.9610   -4.6140    3.8150 C   0  0  0  0  0  0  0  0  0  0  0  0
    3.5970   -4.6590    3.4690 C   0  0  0  0  0  3  0  0  0  0  0  0
    2.5990   -4.5310    4.4380 C   0  0  0  0  0  3  0  0  0  0  0  0
    2.9430   -4.3460    5.7730 C   0  0  0  0  0  3  0  0  0  0  0  0
    4.2850   -4.2810    6.1390 C   0  0  0  0  0  3  0  0  0  0  0  0
    5.2840   -4.4070    5.1690 C   0  0  0  0  0  3  0  0  0  0  0  0
    8.6310   -1.5560    2.3600 N   0  0  0  0  0  0  0  0  0  0  0  0
    7.6690   -1.2370    2.4360 H   0  0  0  0  0  0  0  0  0  0  0  0
    9.6450   -1.0240    3.2530 C   0  0  2  0  0  3  0  0  0  0  0  0
    9.3450   -1.4600    4.6860 C   0  0  0  0  0  1  0  0  0  0  0  0
    9.6340    0.5110    3.1020 C   0  0  0  0  0  2  0  0  0  0  0  0
    9.9120    2.2840    1.2870 C   0  0  0  0  0  1  0  0  0  0  0  0
    9.1660    1.0390    1.7430 C   0  0  0  0  0  2  0  0  0  0  0  0
  1 10  2  0  0  0  0
  1 23  1  0  0  0  0
  2  1  1  0  0  0  0
  3  4  1  0  0  0  0
  3  2  2  0  0  0  0
  4  5  2  0  0  0  0
  5  6  1  0  0  0  0
  5 10  1  0  0  0  0
  6  7  2  0  0  0  0
  7  8  1  0  0  0  0
  8 17  1  0  0  0  0
  9  8  2  0  0  0  0
 10  9  1  0  0  0  0
 11  7  1  0  0  0  0
 11 16  1  0  0  0  0
 12 11  2  0  0  0  0
 13 12  1  0  0  0  0
 13 14  2  0  0  0  0
 14 15  1  0  0  0  0
 15 16  2  0  0  0  0
 17 22  1  0  0  0  0
 18 17  2  0  0  0  0
 18 19  1  0  0  0  0
 19 20  2  0  0  0  0
 20 21  1  0  0  0  0
 22 21  2  0  0  0  0
 23 24  1  0  0  0  0
 23 25  1  0  0  0  0
 25 26  1  1  0  0  0
 27 25  1  0  0  0  0
 28 29  1  0  0  0  0
 29 27  1  0  0  0  0
M  END
>  <minimizedAffinity>
-6.57299137

$$$$

 OpenBabel09122218123D

 29 32  0  0  1  0  0  0  0  0999 V2000
    9.6730   -1.6750    6.0510 C   0  0  0  0  0  0  0  0  0  0  0  0
   10.5820   -2.0070    5.1170 N   0  0  0  0  0  0  0  0  0  0  0  0
   10.1810   -2.8640    4.1780 C   0  0  0  0  0  3  0  0  0  0  0  0
    8.9640   -3.3980    4.0750 N   0  0  0  0  0  0  0  0  0  0  0  0
    8.0750   -3.0430    4.9960 C   0  0  0  0  0  0  0  0  0  0  0  0
    6.8420   -3.5420    4.8770 N   0  0  0  0  0  0  0  0  0  0  0  0
    5.8900   -3.1900    5.7900 C   0  0  0  0  0  0  0  0  0  0  0  0
    6.2020   -2.3670    6.8800 C   0  0  0  0  0  0  0  0  0  0  0  0
    7.4480   -1.8420    7.0050 N   0  0  0  0  0  0  0  0  0  0  0  0
    8.3680   -2.1750    6.0520 C   0  0  0  0  0  0  0  0  0  0  0  0
    4.5470   -3.7120    5.4760 C   0  0  0  0  0  0  0  0  0  0  0  0
    4.1360   -4.9940    5.8830 C   0  0  0  0  0  3  0  0  0  0  0  0
    2.8560   -5.4720    5.5860 C   0  0  0  0  0  3  0  0  0  0  0  0
    1.9580   -4.6710    4.8860 C   0  0  0  0  0  3  0  0  0  0  0  0
    2.3340   -3.3910    4.4900 C   0  0  0  0  0  3  0  0  0  0  0  0
    3.6150   -2.9150    4.7860 C   0  0  0  0  0  3  0  0  0  0  0  0
    5.2870   -2.0040    7.9780 C   0  0  0  0  0  0  0  0  0  0  0  0
    4.4580   -0.8720    7.8680 C   0  0  0  0  0  3  0  0  0  0  0  0
    3.5900   -0.5060    8.8990 C   0  0  0  0  0  3  0  0  0  0  0  0
    3.5370   -1.2620   10.0660 C   0  0  0  0  0  3  0  0  0  0  0  0
    4.3580   -2.3770   10.2060 C   0  0  0  0  0  3  0  0  0  0  0  0
    5.2300   -2.7410    9.1750 C   0  0  0  0  0  3  0  0  0  0  0  0
   10.0210   -0.7340    7.0190 N   0  0  0  0  0  0  0  0  0  0  0  0
   10.5590   -1.0990    7.7990 H   0  0  0  0  0  0  0  0  0  0  0  0
    9.9720    0.6970    6.7780 C   0  0  2  0  0  3  0  0  0  0  0  0
   11.3670    1.2030    6.4150 C   0  0  0  0  0  1  0  0  0  0  0  0
    9.4300    1.3640    8.0590 C   0  0  0  0  0  2  0  0  0  0  0  0
    7.4020    0.7620    9.4860 C   0  0  0  0  0  1  0  0  0  0  0  0
    7.9060    1.3920    8.1960 C   0  0  0  0  0  2  0  0  0  0  0  0
  1 10  2  0  0  0  0
  1 23  1  0  0  0  0
  2  1  1  0  0  0  0
  3  2  2  0  0  0  0
  4  3  1  0  0  0  0
  4  5  2  0  0  0  0
  5 10  1  0  0  0  0
  6  5  1  0  0  0  0
  6  7  2  0  0  0  0
  7  8  1  0  0  0  0
  8  9  2  0  0  0  0
  8 17  1  0  0  0  0
 10  9  1  0  0  0  0
 11  7  1  0  0  0  0
 11 12  1  0  0  0  0
 13 12  2  0  0  0  0
 14 13  1  0  0  0  0
 15 16  1  0  0  0  0
 15 14  2  0  0  0  0
 16 11  2  0  0  0  0
 17 22  1  0  0  0  0
 18 17  2  0  0  0  0
 18 19  1  0  0  0  0
 19 20  2  0  0  0  0
 20 21  1  0  0  0  0
 22 21  2  0  0  0  0
 23 24  1  0  0  0  0
 25 26  1  1  0  0  0
 25 23  1  0  0  0  0
 25 27  1  0  0  0  0
 27 29  1  0  0  0  0
 29 28  1  0  0  0  0
M  END
>  <minimizedAffinity>
-6.39900589

$$$$

 OpenBabel09122218123D

 29 32  0  0  1  0  0  0  0  0999 V2000
    9.6660   -1.6470    6.1530 C   0  0  0  0  0  0  0  0  0  0  0  0
   10.5870   -1.9760    5.2280 N   0  0  0  0  0  0  0  0  0  0  0  0
   10.1960   -2.8270    4.2800 C   0  0  0  0  0  3  0  0  0  0  0  0
    8.9790   -3.3560    4.1570 N   0  0  0  0  0  0  0  0  0  0  0  0
    8.0790   -3.0040    5.0680 C   0  0  0  0  0  0  0  0  0  0  0  0
    6.8460   -3.4990    4.9300 N   0  0  0  0  0  0  0  0  0  0  0  0
    5.8830   -3.1500    5.8330 C   0  0  0  0  0  0  0  0  0  0  0  0
    6.1830   -2.3350    6.9310 C   0  0  0  0  0  0  0  0  0  0  0  0
    7.4280   -1.8140    7.0760 N   0  0  0  0  0  0  0  0  0  0  0  0
    8.3600   -2.1430    6.1340 C   0  0  0  0  0  0  0  0  0  0  0  0
    4.5430   -3.6670    5.4970 C   0  0  0  0  0  0  0  0  0  0  0  0
    4.1170   -4.9440    5.9060 C   0  0  0  0  0  3  0  0  0  0  0  0
    2.8400   -5.4170    5.5890 C   0  0  0  0  0  3  0  0  0  0  0  0
    1.9600   -4.6160    4.8670 C   0  0  0  0  0  3  0  0  0  0  0  0
    2.3510   -3.3410    4.4680 C   0  0  0  0  0  3  0  0  0  0  0  0
    3.6290   -2.8700    4.7840 C   0  0  0  0  0  3  0  0  0  0  0  0
    5.2540   -1.9760    8.0190 C   0  0  0  0  0  0  0  0  0  0  0  0
    5.1190   -2.8120    9.1440 C   0  0  0  0  0  3  0  0  0  0  0  0
    4.2400   -2.4940   10.1820 C   0  0  0  0  0  3  0  0  0  0  0  0
    3.4720   -1.3360   10.1130 C   0  0  0  0  0  3  0  0  0  0  0  0
    3.5750   -0.5010    9.0040 C   0  0  0  0  0  3  0  0  0  0  0  0
    4.4530   -0.8220    7.9640 C   0  0  0  0  0  3  0  0  0  0  0  0
   10.0030   -0.7130    7.1310 N   0  0  0  0  0  0  0  0  0  0  0  0
    9.4560    0.1430    7.1140 H   0  0  0  0  0  0  0  0  0  0  0  0
   10.7810   -1.0530    8.3090 C   0  0  2  0  0  3  0  0  0  0  0  0
   10.6000   -2.5350    8.6330 C   0  0  0  0  0  1  0  0  0  0  0  0
   10.2990   -0.1460    9.4590 C   0  0  0  0  0  2  0  0  0  0  0  0
    7.8700   -0.1470   10.2430 C   0  0  0  0  0  1  0  0  0  0  0  0
    8.8980    0.4480    9.2920 C   0  0  0  0  0  2  0  0  0  0  0  0
  1 23  1  0  0  0  0
  2  1  1  0  0  0  0
  3  2  2  0  0  0  0
  4  3  1  0  0  0  0
  4  5  2  0  0  0  0
  5 10  1  0  0  0  0
  6  5  1  0  0  0  0
  6  7  2  0  0  0  0
  7  8  1  0  0  0  0
  8  9  2  0  0  0  0
  8 17  1  0  0  0  0
 10  1  2  0  0  0  0
 10  9  1  0  0  0  0
 11  7  1  0  0  0  0
 11 12  1  0  0  0  0
 13 12  2  0  0  0  0
 14 13  1  0  0  0  0
 15 16  1  0  0  0  0
 15 14  2  0  0  0  0
 16 11  2  0  0  0  0
 17 18  1  0  0  0  0
 18 19  2  0  0  0  0
 20 19  1  0  0  0  0
 21 20  2  0  0  0  0
 22 17  2  0  0  0  0
 22 21  1  0  0  0  0
 23 25  1  0  0  0  0
 24 23  1  0  0  0  0
 25 26  1  1  0  0  0
 25 27  1  0  0  0  0
 29 27  1  0  0  0  0
 29 28  1  0  0  0  0
M  END
>  <minimizedAffinity>
-6.16099119

$$$$

 OpenBabel09122218123D

 29 32  0  0  1  0  0  0  0  0999 V2000
    5.2260   -2.7860    7.8630 C   0  0  0  0  0  0  0  0  0  0  0  0
    6.2680   -1.9360    7.9080 N   0  0  0  0  0  0  0  0  0  0  0  0
    7.1150   -1.9810    6.8800 C   0  0  0  0  0  3  0  0  0  0  0  0
    7.0080   -2.7720    5.8130 N   0  0  0  0  0  0  0  0  0  0  0  0
    5.9620   -3.5900    5.7770 C   0  0  0  0  0  0  0  0  0  0  0  0
    5.8250   -4.3570    4.6920 N   0  0  0  0  0  0  0  0  0  0  0  0
    4.7550   -5.2000    4.6040 C   0  0  0  0  0  0  0  0  0  0  0  0
    3.8380   -5.3180    5.6560 C   0  0  0  0  0  0  0  0  0  0  0  0
    3.9580   -4.5340    6.7580 N   0  0  0  0  0  0  0  0  0  0  0  0
    5.0120   -3.6670    6.8000 C   0  0  0  0  0  0  0  0  0  0  0  0
    4.6580   -5.8980    3.3080 C   0  0  0  0  0  0  0  0  0  0  0  0
    4.6730   -5.2010    2.0870 C   0  0  0  0  0  3  0  0  0  0  0  0
    4.5910   -5.8760    0.8660 C   0  0  0  0  0  3  0  0  0  0  0  0
    4.5030   -7.2650    0.8430 C   0  0  0  0  0  3  0  0  0  0  0  0
    4.5060   -7.9800    2.0370 C   0  0  0  0  0  3  0  0  0  0  0  0
    4.5880   -7.3030    3.2580 C   0  0  0  0  0  3  0  0  0  0  0  0
    2.7080   -6.2630    5.7140 C   0  0  0  0  0  0  0  0  0  0  0  0
    1.4360   -5.8810    5.2460 C   0  0  0  0  0  3  0  0  0  0  0  0
    0.3500   -6.7590    5.2980 C   0  0  0  0  0  3  0  0  0  0  0  0
    0.5120   -8.0360    5.8270 C   0  0  0  0  0  3  0  0  0  0  0  0
    1.7550   -8.4320    6.3120 C   0  0  0  0  0  3  0  0  0  0  0  0
    2.8410   -7.5520    6.2620 C   0  0  0  0  0  3  0  0  0  0  0  0
    4.2770   -2.7360    8.8820 N   0  0  0  0  0  0  0  0  0  0  0  0
    4.3960   -3.4300    9.6140 H   0  0  0  0  0  0  0  0  0  0  0  0
    3.4250   -1.5820    9.1080 C   0  0  2  0  0  3  0  0  0  0  0  0
    3.0540   -1.5010   10.5880 C   0  0  0  0  0  1  0  0  0  0  0  0
    2.1820   -1.7410    8.2080 C   0  0  0  0  0  2  0  0  0  0  0  0
    1.9220   -1.8420    5.6710 C   0  0  0  0  0  1  0  0  0  0  0  0
    2.2220   -0.9740    6.8830 C   0  0  0  0  0  2  0  0  0  0  0  0
  1  2  1  0  0  0  0
  1 23  1  0  0  0  0
  3  2  2  0  0  0  0
  4  3  1  0  0  0  0
  5  4  2  0  0  0  0
  5 10  1  0  0  0  0
  6  5  1  0  0  0  0
  7  6  2  0  0  0  0
  7  8  1  0  0  0  0
  8 17  1  0  0  0  0
  8  9  2  0  0  0  0
  9 10  1  0  0  0  0
 10  1  2  0  0  0  0
 11  7  1  0  0  0  0
 12 11  2  0  0  0  0
 13 12  1  0  0  0  0
 14 13  2  0  0  0  0
 14 15  1  0  0  0  0
 15 16  2  0  0  0  0
 16 11  1  0  0  0  0
 17 22  1  0  0  0  0
 18 19  1  0  0  0  0
 18 17  2  0  0  0  0
 19 20  2  0  0  0  0
 20 21  1  0  0  0  0
 22 21  2  0  0  0  0
 23 25  1  0  0  0  0
 23 24  1  0  0  0  0
 25 26  1  1  0  0  0
 27 25  1  0  0  0  0
 28 29  1  0  0  0  0
 29 27  1  0  0  0  0
M  END
>  <minimizedAffinity>
-6.14908791

$$$$
