
 OpenBabel09122222393D

 29 32  0  0  1  0  0  0  0  0999 V2000
    9.3680   -2.8110    4.5530 C   0  0  0  0  0  0  0  0  0  0  0  0
   10.5610   -2.2480    4.8200 N   0  0  0  0  0  0  0  0  0  0  0  0
   10.6250   -1.4850    5.9120 C   0  0  0  0  0  3  0  0  0  0  0  0
    9.6260   -1.2520    6.7620 N   0  0  0  0  0  0  0  0  0  0  0  0
    8.4620   -1.8320    6.4920 C   0  0  0  0  0  0  0  0  0  0  0  0
    7.4670   -1.6370    7.3610 N   0  0  0  0  0  0  0  0  0  0  0  0
    6.2580   -2.2280    7.1330 C   0  0  0  0  0  0  0  0  0  0  0  0
    6.0280   -2.9820    5.9750 C   0  0  0  0  0  0  0  0  0  0  0  0
    7.0350   -3.2000    5.0910 N   0  0  0  0  0  0  0  0  0  0  0  0
    8.2460   -2.6340    5.3670 C   0  0  0  0  0  0  0  0  0  0  0  0
    5.2870   -2.0310    8.2260 C   0  0  0  0  0  0  0  0  0  0  0  0
    5.2310   -2.8960    9.3330 C   0  0  0  0  0  3  0  0  0  0  0  0
    4.3130   -2.6910   10.3670 C   0  0  0  0  0  3  0  0  0  0  0  0
    3.4400   -1.6080   10.3180 C   0  0  0  0  0  3  0  0  0  0  0  0
    3.4890   -0.7250    9.2430 C   0  0  0  0  0  3  0  0  0  0  0  0
    4.4070   -0.9330    8.2090 C   0  0  0  0  0  3  0  0  0  0  0  0
    4.7410   -3.5800    5.5750 C   0  0  0  0  0  0  0  0  0  0  0  0
    3.8080   -2.8310    4.8330 C   0  0  0  0  0  3  0  0  0  0  0  0
    2.5800   -3.3770    4.4500 C   0  0  0  0  0  3  0  0  0  0  0  0
    2.2560   -4.6820    4.8090 C   0  0  0  0  0  3  0  0  0  0  0  0
    3.1540   -5.4380    5.5570 C   0  0  0  0  0  3  0  0  0  0  0  0
    4.3820   -4.8900    5.9420 C   0  0  0  0  0  3  0  0  0  0  0  0
    9.2630   -3.6670    3.4590 N   0  0  0  0  0  0  0  0  0  0  0  0
    9.3630   -4.6550    3.6760 H   0  0  0  0  0  0  0  0  0  0  0  0
    8.6830   -3.2580    2.1920 C   0  0  2  0  0  3  0  0  0  0  0  0
    8.0160   -4.4590    1.5220 C   0  0  0  0  0  1  0  0  0  0  0  0
    9.8200   -2.6730    1.3300 C   0  0  0  0  0  2  0  0  0  0  0  0
    9.0450   -0.2930    1.8290 C   0  0  0  0  0  1  0  0  0  0  0  0
    9.5790   -1.2620    0.7860 C   0  0  0  0  0  2  0  0  0  0  0  0
  1  2  1  0  0  0  0
  1 10  2  0  0  0  0
  2  3  2  0  0  0  0
  3  4  1  0  0  0  0
  5  4  2  0  0  0  0
  5  6  1  0  0  0  0
  7  6  2  0  0  0  0
  7 11  1  0  0  0  0
  8  7  1  0  0  0  0
  9 10  1  0  0  0  0
  9  8  2  0  0  0  0
 10  5  1  0  0  0  0
 11 12  1  0  0  0  0
 12 13  2  0  0  0  0
 14 13  1  0  0  0  0
 15 14  2  0  0  0  0
 16 11  2  0  0  0  0
 16 15  1  0  0  0  0
 17 22  1  0  0  0  0
 17  8  1  0  0  0  0
 18 17  2  0  0  0  0
 19 20  2  0  0  0  0
 19 18  1  0  0  0  0
 20 21  1  0  0  0  0
 21 22  2  0  0  0  0
 23 24  1  0  0  0  0
 23  1  1  0  0  0  0
 25 26  1  6  0  0  0
 25 23  1  0  0  0  0
 27 25  1  0  0  0  0
 29 27  1  0  0  0  0
 29 28  1  0  0  0  0
M  END
>  <minimizedAffinity>
-6.74207973

$$$$
