
 OpenBabel09122222393D

 29 32  0  0  1  0  0  0  0  0999 V2000
    9.6660   -1.6470    6.1530 C   0  0  0  0  0  0  0  0  0  0  0  0
   10.5870   -1.9760    5.2280 N   0  0  0  0  0  0  0  0  0  0  0  0
   10.1960   -2.8270    4.2800 C   0  0  0  0  0  3  0  0  0  0  0  0
    8.9790   -3.3560    4.1570 N   0  0  0  0  0  0  0  0  0  0  0  0
    8.0790   -3.0040    5.0680 C   0  0  0  0  0  0  0  0  0  0  0  0
    6.8460   -3.4990    4.9300 N   0  0  0  0  0  0  0  0  0  0  0  0
    5.8830   -3.1500    5.8330 C   0  0  0  0  0  0  0  0  0  0  0  0
    6.1830   -2.3350    6.9310 C   0  0  0  0  0  0  0  0  0  0  0  0
    7.4280   -1.8140    7.0760 N   0  0  0  0  0  0  0  0  0  0  0  0
    8.3600   -2.1430    6.1340 C   0  0  0  0  0  0  0  0  0  0  0  0
    4.5430   -3.6670    5.4970 C   0  0  0  0  0  0  0  0  0  0  0  0
    4.1170   -4.9440    5.9060 C   0  0  0  0  0  3  0  0  0  0  0  0
    2.8400   -5.4170    5.5890 C   0  0  0  0  0  3  0  0  0  0  0  0
    1.9600   -4.6160    4.8670 C   0  0  0  0  0  3  0  0  0  0  0  0
    2.3510   -3.3410    4.4680 C   0  0  0  0  0  3  0  0  0  0  0  0
    3.6290   -2.8700    4.7840 C   0  0  0  0  0  3  0  0  0  0  0  0
    5.2540   -1.9760    8.0190 C   0  0  0  0  0  0  0  0  0  0  0  0
    5.1190   -2.8120    9.1440 C   0  0  0  0  0  3  0  0  0  0  0  0
    4.2400   -2.4940   10.1820 C   0  0  0  0  0  3  0  0  0  0  0  0
    3.4720   -1.3360   10.1130 C   0  0  0  0  0  3  0  0  0  0  0  0
    3.5750   -0.5010    9.0040 C   0  0  0  0  0  3  0  0  0  0  0  0
    4.4530   -0.8220    7.9640 C   0  0  0  0  0  3  0  0  0  0  0  0
   10.0030   -0.7130    7.1310 N   0  0  0  0  0  0  0  0  0  0  0  0
    9.4560    0.1430    7.1140 H   0  0  0  0  0  0  0  0  0  0  0  0
   10.7810   -1.0530    8.3090 C   0  0  2  0  0  3  0  0  0  0  0  0
   10.6000   -2.5350    8.6330 C   0  0  0  0  0  1  0  0  0  0  0  0
   10.2990   -0.1460    9.4590 C   0  0  0  0  0  2  0  0  0  0  0  0
    7.8700   -0.1470   10.2430 C   0  0  0  0  0  1  0  0  0  0  0  0
    8.8980    0.4480    9.2920 C   0  0  0  0  0  2  0  0  0  0  0  0
  1 23  1  0  0  0  0
  2  1  1  0  0  0  0
  3  2  2  0  0  0  0
  4  3  1  0  0  0  0
  4  5  2  0  0  0  0
  5 10  1  0  0  0  0
  6  5  1  0  0  0  0
  6  7  2  0  0  0  0
  7  8  1  0  0  0  0
  8  9  2  0  0  0  0
  8 17  1  0  0  0  0
 10  1  2  0  0  0  0
 10  9  1  0  0  0  0
 11  7  1  0  0  0  0
 11 12  1  0  0  0  0
 13 12  2  0  0  0  0
 14 13  1  0  0  0  0
 15 16  1  0  0  0  0
 15 14  2  0  0  0  0
 16 11  2  0  0  0  0
 17 18  1  0  0  0  0
 18 19  2  0  0  0  0
 20 19  1  0  0  0  0
 21 20  2  0  0  0  0
 22 17  2  0  0  0  0
 22 21  1  0  0  0  0
 23 25  1  0  0  0  0
 24 23  1  0  0  0  0
 25 26  1  1  0  0  0
 25 27  1  0  0  0  0
 29 27  1  0  0  0  0
 29 28  1  0  0  0  0
M  END
>  <minimizedAffinity>
-6.16099119

$$$$
