
 OpenBabel09122222393D

 29 32  0  0  1  0  0  0  0  0999 V2000
    9.6730   -1.6750    6.0510 C   0  0  0  0  0  0  0  0  0  0  0  0
   10.5820   -2.0070    5.1170 N   0  0  0  0  0  0  0  0  0  0  0  0
   10.1810   -2.8640    4.1780 C   0  0  0  0  0  3  0  0  0  0  0  0
    8.9640   -3.3980    4.0750 N   0  0  0  0  0  0  0  0  0  0  0  0
    8.0750   -3.0430    4.9960 C   0  0  0  0  0  0  0  0  0  0  0  0
    6.8420   -3.5420    4.8770 N   0  0  0  0  0  0  0  0  0  0  0  0
    5.8900   -3.1900    5.7900 C   0  0  0  0  0  0  0  0  0  0  0  0
    6.2020   -2.3670    6.8800 C   0  0  0  0  0  0  0  0  0  0  0  0
    7.4480   -1.8420    7.0050 N   0  0  0  0  0  0  0  0  0  0  0  0
    8.3680   -2.1750    6.0520 C   0  0  0  0  0  0  0  0  0  0  0  0
    4.5470   -3.7120    5.4760 C   0  0  0  0  0  0  0  0  0  0  0  0
    4.1360   -4.9940    5.8830 C   0  0  0  0  0  3  0  0  0  0  0  0
    2.8560   -5.4720    5.5860 C   0  0  0  0  0  3  0  0  0  0  0  0
    1.9580   -4.6710    4.8860 C   0  0  0  0  0  3  0  0  0  0  0  0
    2.3340   -3.3910    4.4900 C   0  0  0  0  0  3  0  0  0  0  0  0
    3.6150   -2.9150    4.7860 C   0  0  0  0  0  3  0  0  0  0  0  0
    5.2870   -2.0040    7.9780 C   0  0  0  0  0  0  0  0  0  0  0  0
    4.4580   -0.8720    7.8680 C   0  0  0  0  0  3  0  0  0  0  0  0
    3.5900   -0.5060    8.8990 C   0  0  0  0  0  3  0  0  0  0  0  0
    3.5370   -1.2620   10.0660 C   0  0  0  0  0  3  0  0  0  0  0  0
    4.3580   -2.3770   10.2060 C   0  0  0  0  0  3  0  0  0  0  0  0
    5.2300   -2.7410    9.1750 C   0  0  0  0  0  3  0  0  0  0  0  0
   10.0210   -0.7340    7.0190 N   0  0  0  0  0  0  0  0  0  0  0  0
   10.5590   -1.0990    7.7990 H   0  0  0  0  0  0  0  0  0  0  0  0
    9.9720    0.6970    6.7780 C   0  0  2  0  0  3  0  0  0  0  0  0
   11.3670    1.2030    6.4150 C   0  0  0  0  0  1  0  0  0  0  0  0
    9.4300    1.3640    8.0590 C   0  0  0  0  0  2  0  0  0  0  0  0
    7.4020    0.7620    9.4860 C   0  0  0  0  0  1  0  0  0  0  0  0
    7.9060    1.3920    8.1960 C   0  0  0  0  0  2  0  0  0  0  0  0
  1 10  2  0  0  0  0
  1 23  1  0  0  0  0
  2  1  1  0  0  0  0
  3  2  2  0  0  0  0
  4  3  1  0  0  0  0
  4  5  2  0  0  0  0
  5 10  1  0  0  0  0
  6  5  1  0  0  0  0
  6  7  2  0  0  0  0
  7  8  1  0  0  0  0
  8  9  2  0  0  0  0
  8 17  1  0  0  0  0
 10  9  1  0  0  0  0
 11  7  1  0  0  0  0
 11 12  1  0  0  0  0
 13 12  2  0  0  0  0
 14 13  1  0  0  0  0
 15 16  1  0  0  0  0
 15 14  2  0  0  0  0
 16 11  2  0  0  0  0
 17 22  1  0  0  0  0
 18 17  2  0  0  0  0
 18 19  1  0  0  0  0
 19 20  2  0  0  0  0
 20 21  1  0  0  0  0
 22 21  2  0  0  0  0
 23 24  1  0  0  0  0
 25 26  1  1  0  0  0
 25 23  1  0  0  0  0
 25 27  1  0  0  0  0
 27 29  1  0  0  0  0
 29 28  1  0  0  0  0
M  END
>  <minimizedAffinity>
-6.39900589

$$$$
