
 OpenBabel08162216383D

 31 33  0  0  1  0  0  0  0  0999 V2000
  -23.1700   52.9170   61.2890 C   0  0  0  0  0  0  0  0  0  0  0  0
  -23.7570   54.1150   60.8620 C   0  0  0  0  0  3  0  0  0  0  0  0
  -23.8760   55.1700   61.7600 C   0  0  0  0  0  0  0  0  0  0  0  0
  -24.6440   56.8000   61.1920 Br  0  0  0  0  0  0  0  0  0  0  0  0
  -23.4420   55.0290   63.0760 C   0  0  0  0  0  3  0  0  0  0  0  0
  -22.8810   53.8200   63.5060 C   0  0  0  0  0  3  0  0  0  0  0  0
  -22.7260   52.7530   62.6170 C   0  0  0  0  0  0  0  0  0  0  0  0
  -18.9830   53.9770   58.4820 C   0  0  0  0  0  1  0  0  0  0  0  0
  -20.3020   53.2260   58.3190 C   0  0  1  0  0  3  0  0  0  0  0  0
  -20.2010   52.1830   57.1930 C   0  0  0  0  0  2  0  0  0  0  0  0
  -21.5020   51.3740   57.0690 C   0  0  1  0  0  3  0  0  0  0  0  0
  -21.3700   50.2950   55.9980 C   0  0  0  0  0  1  0  0  0  0  0  0
  -21.8890   50.7560   58.4200 C   0  0  0  0  0  2  0  0  0  0  0  0
  -21.9390   51.7760   59.4640 N   0  0  0  0  0  0  0  0  0  0  0  0
  -23.0340   51.8070   60.3210 C   0  0  0  0  0  0  0  0  0  0  0  0
  -23.9050   50.9400   60.3470 O   0  0  0  0  0  0  0  0  0  0  0  0
  -20.7060   52.5490   59.6320 C   0  0  0  0  0  2  0  0  0  0  0  0
  -22.2170   51.5020   63.0170 N   0  0  0  0  0  0  0  0  0  0  0  0
  -20.9740   51.0890   63.3930 C   0  0  0  0  0  0  0  0  0  0  0  0
  -20.8490   49.9550   63.8640 O   0  0  0  0  0  0  0  0  0  0  0  0
  -22.8990   50.7390   63.0230 H   0  0  0  0  0  0  0  0  0  0  0  0
  -19.7550   51.9430   63.1220 C   0  0  0  0  0  2  0  0  0  0  0  0
  -19.3710   52.7550   64.3610 C   0  0  0  0  0  2  0  0  0  0  0  0
  -18.1860   53.6460   64.0420 C   0  0  0  0  0  0  0  0  0  0  0  0
  -17.0480   53.2100   64.2350 O   0  0  0  0  0  0  0  0  0  0  0  0
  -18.4030   54.9410   63.6090 N   0  0  0  0  0  0  0  0  0  0  0  0
  -19.7070   55.5980   63.4400 C   0  0  0  0  0  2  0  0  0  0  0  0
  -19.7120   56.5680   62.2540 C   0  0  0  0  0  2  0  0  0  0  0  0
  -18.6210   57.4970   62.3380 O   0  0  0  0  0  0  0  0  0  0  0  0
  -17.3720   56.7900   62.3060 C   0  0  0  0  0  2  0  0  0  0  0  0
  -17.2510   55.8430   63.5000 C   0  0  0  0  0  2  0  0  0  0  0  0
  1  7  1  0  0  0  0
  2  1  2  0  0  0  0
  2  3  1  0  0  0  0
  3  5  2  0  0  0  0
  4  3  1  0  0  0  0
  5  6  1  0  0  0  0
  7 18  1  0  0  0  0
  7  6  2  0  0  0  0
  9  8  1  1  0  0  0
  9 17  1  0  0  0  0
 10  9  1  0  0  0  0
 11 12  1  6  0  0  0
 11 10  1  0  0  0  0
 11 13  1  0  0  0  0
 13 14  1  0  0  0  0
 14 17  1  0  0  0  0
 14 15  1  0  0  0  0
 15 16  2  0  0  0  0
 15  1  1  0  0  0  0
 18 21  1  0  0  0  0
 18 19  1  0  0  0  0
 19 20  2  0  0  0  0
 22 19  1  0  0  0  0
 22 23  1  0  0  0  0
 24 25  2  0  0  0  0
 24 23  1  0  0  0  0
 26 24  1  0  0  0  0
 27 26  1  0  0  0  0
 28 29  1  0  0  0  0
 28 27  1  0  0  0  0
 30 29  1  0  0  0  0
 30 31  1  0  0  0  0
 31 26  1  0  0  0  0
M  END
>  <minimizedAffinity>
-8.56217384

$$$$
