
 OpenBabel08162216383D

 31 33  0  0  1  0  0  0  0  0999 V2000
  -22.4000   54.2360   60.0630 C   0  0  0  0  0  0  0  0  0  0  0  0
  -21.7070   53.1520   59.5100 C   0  0  0  0  0  3  0  0  0  0  0  0
  -21.0020   53.3300   58.3250 C   0  0  0  0  0  0  0  0  0  0  0  0
  -20.0430   51.8830   57.5800 Br  0  0  0  0  0  0  0  0  0  0  0  0
  -21.0070   54.5650   57.6790 C   0  0  0  0  0  3  0  0  0  0  0  0
  -21.7250   55.6380   58.2210 C   0  0  0  0  0  3  0  0  0  0  0  0
  -22.4190   55.4930   59.4250 C   0  0  0  0  0  0  0  0  0  0  0  0
  -18.9080   54.7280   63.8170 C   0  0  0  0  0  1  0  0  0  0  0  0
  -20.2300   54.0020   63.5810 C   0  0  1  0  0  3  0  0  0  0  0  0
  -20.9080   53.6530   64.9170 C   0  0  0  0  0  2  0  0  0  0  0  0
  -22.2730   52.9850   64.6880 C   0  0  1  0  0  3  0  0  0  0  0  0
  -22.9700   52.7050   66.0160 C   0  0  0  0  0  1  0  0  0  0  0  0
  -23.1570   53.8520   63.7810 C   0  0  0  0  0  2  0  0  0  0  0  0
  -22.4610   54.1870   62.5410 N   0  0  0  0  0  0  0  0  0  0  0  0
  -23.1330   54.0380   61.3320 C   0  0  0  0  0  0  0  0  0  0  0  0
  -24.3300   53.7740   61.2450 O   0  0  0  0  0  0  0  0  0  0  0  0
  -21.1680   54.8530   62.7190 C   0  0  0  0  0  2  0  0  0  0  0  0
  -23.1980   56.5280   59.9790 N   0  0  0  0  0  0  0  0  0  0  0  0
  -22.8880   57.7770   60.4270 C   0  0  0  0  0  0  0  0  0  0  0  0
  -23.8110   58.5460   60.7080 O   0  0  0  0  0  0  0  0  0  0  0  0
  -24.1930   56.3140   60.0830 H   0  0  0  0  0  0  0  0  0  0  0  0
  -21.4530   58.1720   60.6990 C   0  0  0  0  0  2  0  0  0  0  0  0
  -21.0430   59.3660   59.8350 C   0  0  0  0  0  2  0  0  0  0  0  0
  -20.1980   58.8880   58.6690 C   0  0  0  0  0  0  0  0  0  0  0  0
  -19.0160   58.5990   58.8730 O   0  0  0  0  0  0  0  0  0  0  0  0
  -20.7460   58.8510   57.4000 N   0  0  0  0  0  0  0  0  0  0  0  0
  -22.1050   59.2660   57.0230 C   0  0  0  0  0  2  0  0  0  0  0  0
  -22.6800   58.3950   55.9020 C   0  0  0  0  0  2  0  0  0  0  0  0
  -21.7830   58.3270   54.7830 O   0  0  0  0  0  0  0  0  0  0  0  0
  -20.5410   57.7340   55.1890 C   0  0  0  0  0  2  0  0  0  0  0  0
  -19.8580   58.5800   56.2650 C   0  0  0  0  0  2  0  0  0  0  0  0
  1 15  1  0  0  0  0
  2  1  1  0  0  0  0
  3  2  2  0  0  0  0
  4  3  1  0  0  0  0
  5  6  2  0  0  0  0
  5  3  1  0  0  0  0
  6  7  1  0  0  0  0
  7 18  1  0  0  0  0
  7  1  2  0  0  0  0
  9  8  1  1  0  0  0
  9 10  1  0  0  0  0
 11 10  1  0  0  0  0
 11 12  1  1  0  0  0
 13 11  1  0  0  0  0
 14 17  1  0  0  0  0
 14 13  1  0  0  0  0
 15 14  1  0  0  0  0
 16 15  2  0  0  0  0
 17  9  1  0  0  0  0
 18 21  1  0  0  0  0
 18 19  1  0  0  0  0
 19 22  1  0  0  0  0
 19 20  2  0  0  0  0
 23 22  1  0  0  0  0
 24 25  2  0  0  0  0
 24 23  1  0  0  0  0
 26 24  1  0  0  0  0
 27 26  1  0  0  0  0
 28 27  1  0  0  0  0
 29 30  1  0  0  0  0
 29 28  1  0  0  0  0
 30 31  1  0  0  0  0
 31 26  1  0  0  0  0
M  END
>  <minimizedAffinity>
-7.50328827

$$$$
