
 OpenBabel08162216383D

 31 33  0  0  1  0  0  0  0  0999 V2000
  -20.0390   57.6870   55.5710 C   0  0  0  0  0  0  0  0  0  0  0  0
  -19.4760   56.4260   55.8120 C   0  0  0  0  0  3  0  0  0  0  0  0
  -19.4820   55.9160   57.1050 C   0  0  0  0  0  0  0  0  0  0  0  0
  -18.7470   54.2090   57.4410 Br  0  0  0  0  0  0  0  0  0  0  0  0
  -20.0160   56.6600   58.1550 C   0  0  0  0  0  3  0  0  0  0  0  0
  -20.5530   57.9310   57.9150 C   0  0  0  0  0  3  0  0  0  0  0  0
  -20.5840   58.4560   56.6200 C   0  0  0  0  0  0  0  0  0  0  0  0
  -15.3550   59.6820   54.7920 C   0  0  0  0  0  1  0  0  0  0  0  0
  -16.7800   59.8940   54.2880 C   0  0  1  0  0  3  0  0  0  0  0  0
  -16.7770   60.5930   52.9180 C   0  0  0  0  0  2  0  0  0  0  0  0
  -18.2050   60.7470   52.3710 C   0  0  1  0  0  3  0  0  0  0  0  0
  -18.1890   61.3770   50.9810 C   0  0  0  0  0  1  0  0  0  0  0  0
  -18.9280   59.3930   52.3470 C   0  0  0  0  0  2  0  0  0  0  0  0
  -18.8760   58.7520   53.6590 N   0  0  0  0  0  0  0  0  0  0  0  0
  -20.0420   58.2120   54.1890 C   0  0  0  0  0  0  0  0  0  0  0  0
  -21.0950   58.1130   53.5620 O   0  0  0  0  0  0  0  0  0  0  0  0
  -17.5280   58.5600   54.2000 C   0  0  0  0  0  2  0  0  0  0  0  0
  -21.0640   59.7500   56.3390 N   0  0  0  0  0  0  0  0  0  0  0  0
  -22.3200   60.2740   56.2730 C   0  0  0  0  0  0  0  0  0  0  0  0
  -22.4420   61.4970   56.1730 O   0  0  0  0  0  0  0  0  0  0  0  0
  -20.3420   60.4440   56.1300 H   0  0  0  0  0  0  0  0  0  0  0  0
  -23.5350   59.3750   56.1930 C   0  0  0  0  0  2  0  0  0  0  0  0
  -24.2010   59.4770   54.8190 C   0  0  0  0  0  2  0  0  0  0  0  0
  -25.6950   59.6710   54.9880 C   0  0  0  0  0  0  0  0  0  0  0  0
  -26.1310   59.9800   56.1010 O   0  0  0  0  0  0  0  0  0  0  0  0
  -26.5390   59.4350   53.9180 N   0  0  0  0  0  0  0  0  0  0  0  0
  -26.1440   58.9680   52.5820 C   0  0  0  0  0  2  0  0  0  0  0  0
  -27.0170   59.5780   51.4800 C   0  0  0  0  0  2  0  0  0  0  0  0
  -28.4120   59.3820   51.7540 O   0  0  0  0  0  0  0  0  0  0  0  0
  -28.7650   60.0310   52.9850 C   0  0  0  0  0  2  0  0  0  0  0  0
  -27.9860   59.4340   54.1580 C   0  0  0  0  0  2  0  0  0  0  0  0
  1  2  2  0  0  0  0
  1  7  1  0  0  0  0
  2  3  1  0  0  0  0
  3  4  1  0  0  0  0
  3  5  2  0  0  0  0
  6  5  1  0  0  0  0
  7  6  2  0  0  0  0
  9  8  1  6  0  0  0
 10  9  1  0  0  0  0
 11 12  1  6  0  0  0
 11 10  1  0  0  0  0
 13 11  1  0  0  0  0
 13 14  1  0  0  0  0
 14 15  1  0  0  0  0
 14 17  1  0  0  0  0
 15  1  1  0  0  0  0
 16 15  2  0  0  0  0
 17  9  1  0  0  0  0
 18  7  1  0  0  0  0
 19 18  1  0  0  0  0
 20 19  2  0  0  0  0
 21 18  1  0  0  0  0
 22 19  1  0  0  0  0
 23 24  1  0  0  0  0
 23 22  1  0  0  0  0
 24 25  2  0  0  0  0
 26 31  1  0  0  0  0
 26 24  1  0  0  0  0
 27 26  1  0  0  0  0
 28 29  1  0  0  0  0
 28 27  1  0  0  0  0
 29 30  1  0  0  0  0
 30 31  1  0  0  0  0
M  END
>  <minimizedAffinity>
-7.86990452

$$$$
