REMARK  Name = 
REMARK  7 active torsions:
REMARK  status: ('A' for Active; 'I' for Inactive)
REMARK    1  A    between atoms: C_1  and  C_2
REMARK    2  A    between atoms: C_4  and  C_5
REMARK    3  A    between atoms: C_8  and  C_10
REMARK    4  A    between atoms: C_16  and  N_17
REMARK    5  A    between atoms: C_18  and  C_20
REMARK    6  A    between atoms: C_20  and  C_21
REMARK    7  A    between atoms: C_21  and  C_22
REMARK                            x       y       z     vdW  Elec       q    Type
REMARK                         _______ _______ _______ _____ _____    ______ ____
ROOT
ATOM      1  C   UNL     1       1.101   3.445  -2.508  0.00  0.00    +0.059 A 
ATOM      2  C   UNL     1       1.779   2.576  -3.373  0.00  0.00    +0.030 A 
ATOM      3  C   UNL     1       2.941   3.012  -3.999  0.00  0.00    +0.019 A 
ATOM      4 BR   UNL     1       3.879   1.844  -5.150  0.00  0.00    -0.050 Br
ATOM      5  C   UNL     1       3.412   4.307  -3.791  0.00  0.00    +0.017 A 
ATOM      6  C   UNL     1       2.716   5.181  -2.947  0.00  0.00    +0.025 A 
ATOM      7  C   UNL     1       1.560   4.759  -2.285  0.00  0.00    +0.046 A 
ENDROOT
BRANCH   1  15
ATOM      8  C   UNL     1       2.440  -0.852  -0.002  0.00  0.00    +0.009 C 
ATOM      9  C   UNL     1       1.191  -0.249  -0.640  0.00  0.00    +0.004 C 
ATOM     10  C   UNL     1      -0.082  -0.877  -0.048  0.00  0.00    +0.009 C 
ATOM     11  C   UNL     1      -1.345  -0.226  -0.634  0.00  0.00    +0.004 C 
ATOM     12  C   UNL     1      -2.602  -0.805   0.009  0.00  0.00    +0.009 C 
ATOM     13  C   UNL     1      -1.300   1.299  -0.465  0.00  0.00    +0.111 C 
ATOM     14  N   UNL     1      -0.060   1.846  -1.010  0.00  0.00    -0.297 N 
ATOM     15  C   UNL     1      -0.125   2.964  -1.835  0.00  0.00    +0.248 C 
ATOM     16  O   UNL     1      -1.152   3.612  -2.027  0.00  0.00    -0.270 OA
ATOM     17  C   UNL     1       1.167   1.271  -0.453  0.00  0.00    +0.111 C 
ENDBRANCH   1  15
BRANCH   7  18
ATOM     18  N   UNL     1       0.798   5.619  -1.470  0.00  0.00    -0.285 N 
ATOM     19  C   UNL     1       1.128   6.694  -0.701  0.00  0.00    +0.218 C 
ATOM     20  O   UNL     1       0.218   7.375  -0.221  0.00  0.00    -0.275 OA
ATOM     21  H   UNL     1      -0.201   5.402  -1.426  0.00  0.00    +0.155 HD
BRANCH  19  22
ATOM     22  C   UNL     1       2.569   6.976  -0.335  0.00  0.00    +0.105 C 
BRANCH  22  23
ATOM     23  C   UNL     1       2.730   7.118   1.180  0.00  0.00    +0.105 C 
BRANCH  23  24
ATOM     24  C   UNL     1       3.352   5.857   1.749  0.00  0.00    +0.216 C 
ATOM     25  O   UNL     1       4.582   5.783   1.820  0.00  0.00    -0.276 OA
ATOM     26  N   UNL     1       2.539   4.799   2.111  0.00  0.00    -0.297 N 
ATOM     27  C   UNL     1       1.077   4.736   1.977  0.00  0.00    +0.136 C 
ATOM     28  C   UNL     1       0.429   3.952   3.123  0.00  0.00    +0.179 C 
ATOM     29  O   UNL     1       1.035   2.660   3.277  0.00  0.00    -0.377 OA
ATOM     30  C   UNL     1       2.427   2.808   3.595  0.00  0.00    +0.179 C 
ATOM     31  C   UNL     1       3.171   3.524   2.467  0.00  0.00    +0.136 C 
ENDBRANCH  23  24
ENDBRANCH  22  23
ENDBRANCH  19  22
ENDBRANCH   7  18
TORSDOF 5
