REMARK  Name = 
REMARK  9 active torsions:
REMARK  status: ('A' for Active; 'I' for Inactive)
REMARK    1  A    between atoms: C_1  and  C_2
REMARK    2  A    between atoms: C_2  and  C_3
REMARK    3  A    between atoms: C_2  and  C_4
REMARK    4  A    between atoms: C_4  and  C_5
REMARK    5  A    between atoms: C_5  and  C_6
REMARK    6  A    between atoms: C_10  and  C_11
REMARK    7  A    between atoms: C_14  and  C_15
REMARK    8  A    between atoms: C_22  and  C_24
REMARK    9  A    between atoms: C_27  and  C_28
REMARK                            x       y       z     vdW  Elec       q    Type
REMARK                         _______ _______ _______ _____ _____    ______ ____
ROOT
ATOM      1  C   UNL     1      -1.336   1.535   0.609  0.00  0.00    +0.079 C 
ATOM      2  C   UNL     1      -1.017   2.813   1.429  0.00  0.00    +0.043 C 
ATOM      3  C   UNL     1      -1.143   2.388   2.893  0.00  0.00    +0.063 C 
ATOM      4  C   UNL     1      -0.573   0.970   2.903  0.00  0.00    +0.135 C 
ATOM      5  N   UNL     1      -0.919   0.433   1.563  0.00  0.00    -0.277 N 
ATOM      6  C   UNL     1      -0.917  -0.934   1.370  0.00  0.00    +0.248 C 
ATOM      7  O   UNL     1      -0.924  -1.764   2.282  0.00  0.00    -0.270 OA
ENDROOT
BRANCH   4   8
ATOM      8  C   UNL     1       0.924   0.838   3.210  0.00  0.00    +0.062 A 
ATOM      9  C   UNL     1       1.356   0.731   4.533  0.00  0.00    +0.025 A 
ATOM     10  C   UNL     1       2.718   0.620   4.807  0.00  0.00    +0.003 A 
ATOM     11  C   UNL     1       3.624   0.613   3.757  0.00  0.00    +0.020 A 
ATOM     12  C   UNL     1       3.123   0.708   2.472  0.00  0.00    +0.111 A 
ATOM     13  N   UNL     1       1.812   0.800   2.184  0.00  0.00    -0.258 NA
ENDBRANCH   4   8
BRANCH   6  14
ATOM     14  C   UNL     1      -0.908  -1.478   0.002  0.00  0.00    +0.037 A 
ATOM     15  C   UNL     1      -1.970  -2.277  -0.428  0.00  0.00    +0.013 A 
ATOM     16  C   UNL     1      -1.936  -2.844  -1.704  0.00  0.00    +0.013 A 
ATOM     17  C   UNL     1      -0.834  -2.631  -2.551  0.00  0.00    +0.055 A 
ATOM     18  C   UNL     1       0.248  -1.869  -2.082  0.00  0.00    +0.013 A 
ATOM     19  C   UNL     1       0.218  -1.309  -0.804  0.00  0.00    +0.013 A 
BRANCH  17  20
ATOM     20  C   UNL     1      -0.802  -3.245  -3.923  0.00  0.00    +0.417 C 
ATOM     21  F   UNL     1      -0.422  -4.558  -3.888  0.00  0.00    -0.166 F 
ATOM     22  F   UNL     1      -2.018  -3.246  -4.546  0.00  0.00    -0.166 F 
ATOM     23  F   UNL     1       0.058  -2.646  -4.794  0.00  0.00    -0.166 F 
ENDBRANCH  17  20
ENDBRANCH   6  14
BRANCH   1  24
ATOM     24  C   UNL     1      -0.535   1.671  -0.777  0.00  0.00    +0.065 C 
ATOM     25  O   UNL     1      -1.230   1.564  -1.840  0.00  0.00    -0.548 OA
ATOM     26  O   UNL     1       0.714   1.861  -0.724  0.00  0.00    -0.548 OA
ENDBRANCH   1  24
BRANCH   3  27
ATOM     27  C   UNL     1      -0.696   3.298   4.027  0.00  0.00    +0.047 C 
ATOM     28  O   UNL     1      -0.804   2.796   5.189  0.00  0.00    -0.549 OA
ATOM     29  O   UNL     1      -0.389   4.484   3.722  0.00  0.00    -0.549 OA
ENDBRANCH   3  27
BRANCH   1  30
ATOM     30  C   UNL     1      -2.853   1.391   0.234  0.00  0.00    +0.035 C 
BRANCH  30  32
ATOM     31  C   UNL     1      -4.559   2.590   1.701  0.00  0.00    +0.007 C 
ATOM     32  C   UNL     1      -3.915   1.244   1.348  0.00  0.00    -0.015 C 
ATOM     33  C   UNL     1      -5.028   0.290   0.893  0.00  0.00    +0.007 C 
ENDBRANCH  30  32
ENDBRANCH   1  30
TORSDOF 7
