
 OpenBabel09122222393D

 33 35  0  0  1  0  0  0  0  0999 V2000
    3.7950   -4.4120    4.8200 C   0  0  2  0  0  0  0  0  0  0  0  0
    4.7320   -3.5360    3.9480 C   0  0  0  0  0  2  0  0  0  0  0  0
    5.9740   -4.3970    3.7100 C   0  0  1  0  0  3  0  0  0  0  0  0
    5.4050   -5.8050    3.5430 C   0  0  1  0  0  3  0  0  0  0  0  0
    4.2050   -5.8150    4.4170 N   0  0  0  0  0  0  0  0  0  0  0  0
    3.6820   -7.0270    4.8200 C   0  0  0  0  0  0  0  0  0  0  0  0
    4.2830   -8.1010    4.7490 O   0  0  0  0  0  0  0  0  0  0  0  0
    5.0800   -6.2450    2.1100 C   0  0  0  0  0  0  0  0  0  0  0  0
    5.3620   -7.5500    1.7020 C   0  0  0  0  0  3  0  0  0  0  0  0
    5.0730   -7.9420    0.3960 C   0  0  0  0  0  3  0  0  0  0  0  0
    4.5040   -7.0270   -0.4780 C   0  0  0  0  0  3  0  0  0  0  0  0
    4.2390   -5.7570   -0.0000 C   0  0  0  0  0  3  0  0  0  0  0  0
    4.4950   -5.3630    1.2600 N   0  0  0  0  0  0  0  0  0  0  0  0
    2.3210   -7.0850    5.3800 C   0  0  0  0  0  0  0  0  0  0  0  0
    2.1230   -6.8190    6.7370 C   0  0  0  0  0  3  0  0  0  0  0  0
    0.8420   -6.9310    7.2830 C   0  0  0  0  0  3  0  0  0  0  0  0
   -0.2440   -7.3280    6.4830 C   0  0  0  0  0  0  0  0  0  0  0  0
   -0.0160   -7.6430    5.1340 C   0  0  0  0  0  3  0  0  0  0  0  0
    1.2650   -7.5380    4.5890 C   0  0  0  0  0  3  0  0  0  0  0  0
   -1.6190   -7.4490    7.0770 C   0  0  0  0  0  0  0  0  0  0  0  0
   -2.4860   -6.5300    6.5540 F   0  0  0  0  0  0  0  0  0  0  0  0
   -2.2070   -8.6600    6.8440 F   0  0  0  0  0  0  0  0  0  0  0  0
   -1.6740   -7.2660    8.4270 F   0  0  0  0  0  0  0  0  0  0  0  0
    2.2940   -3.9440    4.4890 C   0  0  0  0  0  0  0  0  0  0  0  0
    2.1680   -2.7790    3.9870 O   0  0  0  0  0  0  0  0  0  0  0  0
    1.3510   -4.7430    4.7540 O   0  0  0  0  0  1  0  0  0  0  0  0
    7.0480   -3.9860    2.7140 C   0  0  0  0  0  0  0  0  0  0  0  0
    7.6190   -4.9500    2.1160 O   0  0  0  0  0  0  0  0  0  0  0  0
    7.3520   -2.7610    2.6740 O   0  0  0  0  0  1  0  0  0  0  0  0
    3.9960   -4.2050    6.3630 C   0  0  0  0  0  2  0  0  0  0  0  0
    2.8010   -3.5600    8.5210 C   0  0  0  0  0  1  0  0  0  0  0  0
    3.1940   -3.1130    7.1080 C   0  0  0  0  0  3  0  0  0  0  0  0
    4.0330   -1.8340    7.2310 C   0  0  0  0  0  1  0  0  0  0  0  0
  1 30  1  1  0  0  0
  2  1  1  0  0  0  0
  3 27  1  6  0  0  0
  3  2  1  0  0  0  0
  4  8  1  6  0  0  0
  4  3  1  0  0  0  0
  4  5  1  0  0  0  0
  5  6  1  0  0  0  0
  5  1  1  0  0  0  0
  6 14  1  0  0  0  0
  7  6  2  0  0  0  0
  9  8  1  0  0  0  0
 10  9  2  0  0  0  0
 11 12  2  0  0  0  0
 11 10  1  0  0  0  0
 12 13  1  0  0  0  0
 13  8  2  0  0  0  0
 14 15  1  0  0  0  0
 15 16  2  0  0  0  0
 17 20  1  0  0  0  0
 17 16  1  0  0  0  0
 18 17  2  0  0  0  0
 19 18  1  0  0  0  0
 19 14  2  0  0  0  0
 20 23  1  0  0  0  0
 21 20  1  0  0  0  0
 22 20  1  0  0  0  0
 24 26  1  0  0  0  0
 24  1  1  0  0  0  0
 25 24  2  0  0  0  0
 28 27  2  0  0  0  0
 29 27  1  0  0  0  0
 30 32  1  0  0  0  0
 32 33  1  0  0  0  0
 32 31  1  0  0  0  0
M  END
>  <minimizedAffinity>
-4.81853771

$$$$
