
 OpenBabel09122222393D

 33 35  0  0  1  0  0  0  0  0999 V2000
    3.1610   -4.0970    5.8970 C   0  0  2  0  0  0  0  0  0  0  0  0
    4.2430   -3.2000    5.2400 C   0  0  0  0  0  2  0  0  0  0  0  0
    5.5210   -4.0410    5.2570 C   0  0  1  0  0  3  0  0  0  0  0  0
    5.0200   -5.4560    4.9700 C   0  0  1  0  0  3  0  0  0  0  0  0
    3.6670   -5.4900    5.5790 N   0  0  0  0  0  0  0  0  0  0  0  0
    3.0920   -6.7130    5.8620 C   0  0  0  0  0  0  0  0  0  0  0  0
    3.7120   -7.7780    5.9100 O   0  0  0  0  0  0  0  0  0  0  0  0
    5.0030   -5.8890    3.4990 C   0  0  0  0  0  0  0  0  0  0  0  0
    4.2890   -5.1410    2.5620 C   0  0  0  0  0  3  0  0  0  0  0  0
    4.2700   -5.5440    1.2280 C   0  0  0  0  0  3  0  0  0  0  0  0
    4.9670   -6.6830    0.8520 C   0  0  0  0  0  3  0  0  0  0  0  0
    5.6640   -7.3650    1.8310 C   0  0  0  0  0  3  0  0  0  0  0  0
    5.7090   -6.9860    3.1210 N   0  0  0  0  0  0  0  0  0  0  0  0
    1.6460   -6.7950    6.1300 C   0  0  0  0  0  0  0  0  0  0  0  0
    1.1840   -6.7030    7.4450 C   0  0  0  0  0  3  0  0  0  0  0  0
   -0.1810   -6.8410    7.7090 C   0  0  0  0  0  3  0  0  0  0  0  0
   -1.0890   -7.0890    6.6640 C   0  0  0  0  0  0  0  0  0  0  0  0
   -0.5990   -7.2320    5.3560 C   0  0  0  0  0  3  0  0  0  0  0  0
    0.7650   -7.1020    5.0930 C   0  0  0  0  0  3  0  0  0  0  0  0
   -2.5560   -7.2380    6.9550 C   0  0  0  0  0  0  0  0  0  0  0  0
   -3.2640   -6.1220    6.6040 F   0  0  0  0  0  0  0  0  0  0  0  0
   -3.1450   -8.2600    6.2650 F   0  0  0  0  0  0  0  0  0  0  0  0
   -2.8570   -7.4570    8.2660 F   0  0  0  0  0  0  0  0  0  0  0  0
    1.7530   -3.6480    5.2670 C   0  0  0  0  0  0  0  0  0  0  0  0
    1.2790   -4.4020    4.3560 O   0  0  0  0  0  0  0  0  0  0  0  0
    1.2200   -2.5860    5.7020 O   0  0  0  0  0  1  0  0  0  0  0  0
    6.7690   -3.6060    4.5050 C   0  0  0  0  0  0  0  0  0  0  0  0
    7.7290   -3.2170    5.2420 O   0  0  0  0  0  1  0  0  0  0  0  0
    6.6900   -3.5530    3.2460 O   0  0  0  0  0  0  0  0  0  0  0  0
    3.0380   -3.8980    7.4490 C   0  0  0  0  0  2  0  0  0  0  0  0
    2.4450   -1.8890    8.9020 C   0  0  0  0  0  1  0  0  0  0  0  0
    3.5490   -2.5950    8.1050 C   0  0  0  0  0  3  0  0  0  0  0  0
    4.7040   -2.9070    9.0670 C   0  0  0  0  0  1  0  0  0  0  0  0
  1 30  1  1  0  0  0
  2  3  1  0  0  0  0
  2  1  1  0  0  0  0
  3 27  1  6  0  0  0
  4  8  1  6  0  0  0
  4  3  1  0  0  0  0
  4  5  1  0  0  0  0
  5  6  1  0  0  0  0
  5  1  1  0  0  0  0
  6  7  2  0  0  0  0
  6 14  1  0  0  0  0
  9  8  2  0  0  0  0
 10  9  1  0  0  0  0
 11 10  2  0  0  0  0
 11 12  1  0  0  0  0
 12 13  2  0  0  0  0
 13  8  1  0  0  0  0
 14 15  1  0  0  0  0
 15 16  2  0  0  0  0
 17 20  1  0  0  0  0
 17 16  1  0  0  0  0
 18 17  2  0  0  0  0
 19 18  1  0  0  0  0
 19 14  2  0  0  0  0
 20 23  1  0  0  0  0
 21 20  1  0  0  0  0
 22 20  1  0  0  0  0
 24 26  1  0  0  0  0
 24  1  1  0  0  0  0
 25 24  2  0  0  0  0
 27 28  1  0  0  0  0
 29 27  2  0  0  0  0
 30 32  1  0  0  0  0
 32 31  1  0  0  0  0
 32 33  1  0  0  0  0
M  END
>  <minimizedAffinity>
-4.98238993

$$$$
