
 OpenBabel09122220493D

 33 35  0  0  1  0  0  0  0  0999 V2000
    3.1610   -4.0970    5.8970 C   0  0  2  0  0  0  0  0  0  0  0  0
    4.2430   -3.2000    5.2400 C   0  0  0  0  0  2  0  0  0  0  0  0
    5.5210   -4.0410    5.2570 C   0  0  1  0  0  3  0  0  0  0  0  0
    5.0200   -5.4560    4.9700 C   0  0  1  0  0  3  0  0  0  0  0  0
    3.6670   -5.4900    5.5790 N   0  0  0  0  0  0  0  0  0  0  0  0
    3.0920   -6.7130    5.8620 C   0  0  0  0  0  0  0  0  0  0  0  0
    3.7120   -7.7780    5.9100 O   0  0  0  0  0  0  0  0  0  0  0  0
    5.0030   -5.8890    3.4990 C   0  0  0  0  0  0  0  0  0  0  0  0
    4.2890   -5.1410    2.5620 C   0  0  0  0  0  3  0  0  0  0  0  0
    4.2700   -5.5440    1.2280 C   0  0  0  0  0  3  0  0  0  0  0  0
    4.9670   -6.6830    0.8520 C   0  0  0  0  0  3  0  0  0  0  0  0
    5.6640   -7.3650    1.8310 C   0  0  0  0  0  3  0  0  0  0  0  0
    5.7090   -6.9860    3.1210 N   0  0  0  0  0  0  0  0  0  0  0  0
    1.6460   -6.7950    6.1300 C   0  0  0  0  0  0  0  0  0  0  0  0
    1.1840   -6.7030    7.4450 C   0  0  0  0  0  3  0  0  0  0  0  0
   -0.1810   -6.8410    7.7090 C   0  0  0  0  0  3  0  0  0  0  0  0
   -1.0890   -7.0890    6.6640 C   0  0  0  0  0  0  0  0  0  0  0  0
   -0.5990   -7.2320    5.3560 C   0  0  0  0  0  3  0  0  0  0  0  0
    0.7650   -7.1020    5.0930 C   0  0  0  0  0  3  0  0  0  0  0  0
   -2.5560   -7.2380    6.9550 C   0  0  0  0  0  0  0  0  0  0  0  0
   -3.2640   -6.1220    6.6040 F   0  0  0  0  0  0  0  0  0  0  0  0
   -3.1450   -8.2600    6.2650 F   0  0  0  0  0  0  0  0  0  0  0  0
   -2.8570   -7.4570    8.2660 F   0  0  0  0  0  0  0  0  0  0  0  0
    1.7530   -3.6480    5.2670 C   0  0  0  0  0  0  0  0  0  0  0  0
    1.2790   -4.4020    4.3560 O   0  0  0  0  0  0  0  0  0  0  0  0
    1.2200   -2.5860    5.7020 O   0  0  0  0  0  1  0  0  0  0  0  0
    6.7690   -3.6060    4.5050 C   0  0  0  0  0  0  0  0  0  0  0  0
    7.7290   -3.2170    5.2420 O   0  0  0  0  0  1  0  0  0  0  0  0
    6.6900   -3.5530    3.2460 O   0  0  0  0  0  0  0  0  0  0  0  0
    3.0380   -3.8980    7.4490 C   0  0  0  0  0  2  0  0  0  0  0  0
    2.4450   -1.8890    8.9020 C   0  0  0  0  0  1  0  0  0  0  0  0
    3.5490   -2.5950    8.1050 C   0  0  0  0  0  3  0  0  0  0  0  0
    4.7040   -2.9070    9.0670 C   0  0  0  0  0  1  0  0  0  0  0  0
  1 30  1  1  0  0  0
  2  3  1  0  0  0  0
  2  1  1  0  0  0  0
  3 27  1  6  0  0  0
  4  8  1  6  0  0  0
  4  3  1  0  0  0  0
  4  5  1  0  0  0  0
  5  6  1  0  0  0  0
  5  1  1  0  0  0  0
  6  7  2  0  0  0  0
  6 14  1  0  0  0  0
  9  8  2  0  0  0  0
 10  9  1  0  0  0  0
 11 10  2  0  0  0  0
 11 12  1  0  0  0  0
 12 13  2  0  0  0  0
 13  8  1  0  0  0  0
 14 15  1  0  0  0  0
 15 16  2  0  0  0  0
 17 20  1  0  0  0  0
 17 16  1  0  0  0  0
 18 17  2  0  0  0  0
 19 18  1  0  0  0  0
 19 14  2  0  0  0  0
 20 23  1  0  0  0  0
 21 20  1  0  0  0  0
 22 20  1  0  0  0  0
 24 26  1  0  0  0  0
 24  1  1  0  0  0  0
 25 24  2  0  0  0  0
 27 28  1  0  0  0  0
 29 27  2  0  0  0  0
 30 32  1  0  0  0  0
 32 31  1  0  0  0  0
 32 33  1  0  0  0  0
M  END
>  <minimizedAffinity>
-4.98238993

$$$$

 OpenBabel09122220493D

 33 35  0  0  1  0  0  0  0  0999 V2000
    3.7950   -4.4120    4.8200 C   0  0  2  0  0  0  0  0  0  0  0  0
    4.7320   -3.5360    3.9480 C   0  0  0  0  0  2  0  0  0  0  0  0
    5.9740   -4.3970    3.7100 C   0  0  1  0  0  3  0  0  0  0  0  0
    5.4050   -5.8050    3.5430 C   0  0  1  0  0  3  0  0  0  0  0  0
    4.2050   -5.8150    4.4170 N   0  0  0  0  0  0  0  0  0  0  0  0
    3.6820   -7.0270    4.8200 C   0  0  0  0  0  0  0  0  0  0  0  0
    4.2830   -8.1010    4.7490 O   0  0  0  0  0  0  0  0  0  0  0  0
    5.0800   -6.2450    2.1100 C   0  0  0  0  0  0  0  0  0  0  0  0
    5.3620   -7.5500    1.7020 C   0  0  0  0  0  3  0  0  0  0  0  0
    5.0730   -7.9420    0.3960 C   0  0  0  0  0  3  0  0  0  0  0  0
    4.5040   -7.0270   -0.4780 C   0  0  0  0  0  3  0  0  0  0  0  0
    4.2390   -5.7570   -0.0000 C   0  0  0  0  0  3  0  0  0  0  0  0
    4.4950   -5.3630    1.2600 N   0  0  0  0  0  0  0  0  0  0  0  0
    2.3210   -7.0850    5.3800 C   0  0  0  0  0  0  0  0  0  0  0  0
    2.1230   -6.8190    6.7370 C   0  0  0  0  0  3  0  0  0  0  0  0
    0.8420   -6.9310    7.2830 C   0  0  0  0  0  3  0  0  0  0  0  0
   -0.2440   -7.3280    6.4830 C   0  0  0  0  0  0  0  0  0  0  0  0
   -0.0160   -7.6430    5.1340 C   0  0  0  0  0  3  0  0  0  0  0  0
    1.2650   -7.5380    4.5890 C   0  0  0  0  0  3  0  0  0  0  0  0
   -1.6190   -7.4490    7.0770 C   0  0  0  0  0  0  0  0  0  0  0  0
   -2.4860   -6.5300    6.5540 F   0  0  0  0  0  0  0  0  0  0  0  0
   -2.2070   -8.6600    6.8440 F   0  0  0  0  0  0  0  0  0  0  0  0
   -1.6740   -7.2660    8.4270 F   0  0  0  0  0  0  0  0  0  0  0  0
    2.2940   -3.9440    4.4890 C   0  0  0  0  0  0  0  0  0  0  0  0
    2.1680   -2.7790    3.9870 O   0  0  0  0  0  0  0  0  0  0  0  0
    1.3510   -4.7430    4.7540 O   0  0  0  0  0  1  0  0  0  0  0  0
    7.0480   -3.9860    2.7140 C   0  0  0  0  0  0  0  0  0  0  0  0
    7.6190   -4.9500    2.1160 O   0  0  0  0  0  0  0  0  0  0  0  0
    7.3520   -2.7610    2.6740 O   0  0  0  0  0  1  0  0  0  0  0  0
    3.9960   -4.2050    6.3630 C   0  0  0  0  0  2  0  0  0  0  0  0
    2.8010   -3.5600    8.5210 C   0  0  0  0  0  1  0  0  0  0  0  0
    3.1940   -3.1130    7.1080 C   0  0  0  0  0  3  0  0  0  0  0  0
    4.0330   -1.8340    7.2310 C   0  0  0  0  0  1  0  0  0  0  0  0
  1 30  1  1  0  0  0
  2  1  1  0  0  0  0
  3 27  1  6  0  0  0
  3  2  1  0  0  0  0
  4  8  1  6  0  0  0
  4  3  1  0  0  0  0
  4  5  1  0  0  0  0
  5  6  1  0  0  0  0
  5  1  1  0  0  0  0
  6 14  1  0  0  0  0
  7  6  2  0  0  0  0
  9  8  1  0  0  0  0
 10  9  2  0  0  0  0
 11 12  2  0  0  0  0
 11 10  1  0  0  0  0
 12 13  1  0  0  0  0
 13  8  2  0  0  0  0
 14 15  1  0  0  0  0
 15 16  2  0  0  0  0
 17 20  1  0  0  0  0
 17 16  1  0  0  0  0
 18 17  2  0  0  0  0
 19 18  1  0  0  0  0
 19 14  2  0  0  0  0
 20 23  1  0  0  0  0
 21 20  1  0  0  0  0
 22 20  1  0  0  0  0
 24 26  1  0  0  0  0
 24  1  1  0  0  0  0
 25 24  2  0  0  0  0
 28 27  2  0  0  0  0
 29 27  1  0  0  0  0
 30 32  1  0  0  0  0
 32 33  1  0  0  0  0
 32 31  1  0  0  0  0
M  END
>  <minimizedAffinity>
-4.81853771

$$$$

 OpenBabel09122220493D

 33 35  0  0  1  0  0  0  0  0999 V2000
    2.7700   -4.4770    5.0100 C   0  0  2  0  0  0  0  0  0  0  0  0
    2.5010   -3.3810    6.0750 C   0  0  0  0  0  2  0  0  0  0  0  0
    2.5430   -4.1130    7.4180 C   0  0  1  0  0  3  0  0  0  0  0  0
    3.6620   -5.1380    7.2310 C   0  0  1  0  0  3  0  0  0  0  0  0
    3.6000   -5.4790    5.7870 N   0  0  0  0  0  0  0  0  0  0  0  0
    4.1860   -6.6510    5.3520 C   0  0  0  0  0  0  0  0  0  0  0  0
    4.5170   -7.5790    6.0940 O   0  0  0  0  0  0  0  0  0  0  0  0
    5.0670   -4.7000    7.6610 C   0  0  0  0  0  0  0  0  0  0  0  0
    5.6480   -5.2540    8.8040 C   0  0  0  0  0  3  0  0  0  0  0  0
    6.9220   -4.8460    9.1960 C   0  0  0  0  0  3  0  0  0  0  0  0
    7.5950   -3.8990    8.4390 C   0  0  0  0  0  3  0  0  0  0  0  0
    6.9640   -3.4050    7.3130 C   0  0  0  0  0  3  0  0  0  0  0  0
    5.7420   -3.7950    6.9070 N   0  0  0  0  0  0  0  0  0  0  0  0
    4.4480   -6.8470    3.9170 C   0  0  0  0  0  0  0  0  0  0  0  0
    5.4400   -6.0890    3.2890 C   0  0  0  0  0  3  0  0  0  0  0  0
    5.6510   -6.2290    1.9160 C   0  0  0  0  0  3  0  0  0  0  0  0
    4.8620   -7.1130    1.1580 C   0  0  0  0  0  0  0  0  0  0  0  0
    3.8350   -7.8260    1.7970 C   0  0  0  0  0  3  0  0  0  0  0  0
    3.6180   -7.6810    3.1680 C   0  0  0  0  0  3  0  0  0  0  0  0
    5.0920   -7.2580   -0.3200 C   0  0  0  0  0  0  0  0  0  0  0  0
    3.9220   -7.2260   -1.0270 F   0  0  0  0  0  0  0  0  0  0  0  0
    5.8530   -6.2560   -0.8530 F   0  0  0  0  0  0  0  0  0  0  0  0
    5.7020   -8.4200   -0.6890 F   0  0  0  0  0  0  0  0  0  0  0  0
    3.4610   -3.7380    3.7610 C   0  0  0  0  0  0  0  0  0  0  0  0
    4.1600   -2.7090    4.0340 O   0  0  0  0  0  1  0  0  0  0  0  0
    3.2590   -4.2130    2.6060 O   0  0  0  0  0  0  0  0  0  0  0  0
    2.5410   -3.3560    8.7370 C   0  0  0  0  0  0  0  0  0  0  0  0
    1.3880   -3.0860    9.1970 O   0  0  0  0  0  1  0  0  0  0  0  0
    3.6590   -2.9640    9.1740 O   0  0  0  0  0  0  0  0  0  0  0  0
    1.4650   -5.1530    4.4610 C   0  0  0  0  0  2  0  0  0  0  0  0
   -0.9040   -5.8870    5.0530 C   0  0  0  0  0  1  0  0  0  0  0  0
    0.5850   -6.0120    5.3980 C   0  0  0  0  0  3  0  0  0  0  0  0
    0.9770   -7.4910    5.2800 C   0  0  0  0  0  1  0  0  0  0  0  0
  1 30  1  6  0  0  0
  1  5  1  0  0  0  0
  1  2  1  0  0  0  0
  2  3  1  0  0  0  0
  3 27  1  1  0  0  0
  4  3  1  0  0  0  0
  4  8  1  6  0  0  0
  5  4  1  0  0  0  0
  6  5  1  0  0  0  0
  6  7  2  0  0  0  0
  8  9  1  0  0  0  0
  9 10  2  0  0  0  0
 11 10  1  0  0  0  0
 12 11  2  0  0  0  0
 13 12  1  0  0  0  0
 13  8  2  0  0  0  0
 14  6  1  0  0  0  0
 15 14  1  0  0  0  0
 16 15  2  0  0  0  0
 17 18  2  0  0  0  0
 17 16  1  0  0  0  0
 18 19  1  0  0  0  0
 19 14  2  0  0  0  0
 20 17  1  0  0  0  0
 21 20  1  0  0  0  0
 22 20  1  0  0  0  0
 23 20  1  0  0  0  0
 24 25  1  0  0  0  0
 24  1  1  0  0  0  0
 26 24  2  0  0  0  0
 27 29  2  0  0  0  0
 27 28  1  0  0  0  0
 30 32  1  0  0  0  0
 31 32  1  0  0  0  0
 33 32  1  0  0  0  0
M  END
>  <minimizedAffinity>
-2.8382051

$$$$

 OpenBabel09122220493D

 33 35  0  0  1  0  0  0  0  0999 V2000
    4.0790   -3.6940    5.1340 C   0  0  2  0  0  0  0  0  0  0  0  0
    4.0070   -3.0630    6.5500 C   0  0  0  0  0  2  0  0  0  0  0  0
    2.7040   -3.5880    7.1530 C   0  0  1  0  0  3  0  0  0  0  0  0
    2.6300   -5.0280    6.6460 C   0  0  1  0  0  3  0  0  0  0  0  0
    3.2900   -4.9750    5.3170 N   0  0  0  0  0  0  0  0  0  0  0  0
    3.0500   -5.9900    4.4120 C   0  0  0  0  0  0  0  0  0  0  0  0
    2.1200   -6.7940    4.5010 O   0  0  0  0  0  0  0  0  0  0  0  0
    3.2400   -6.1040    7.5530 C   0  0  0  0  0  0  0  0  0  0  0  0
    2.5120   -7.2560    7.8510 C   0  0  0  0  0  3  0  0  0  0  0  0
    3.0680   -8.2270    8.6830 C   0  0  0  0  0  3  0  0  0  0  0  0
    4.3410   -8.0330    9.1970 C   0  0  0  0  0  3  0  0  0  0  0  0
    5.0090   -6.8740    8.8470 C   0  0  0  0  0  3  0  0  0  0  0  0
    4.4980   -5.9320    8.0340 N   0  0  0  0  0  0  0  0  0  0  0  0
    3.9380   -6.1550    3.2490 C   0  0  0  0  0  0  0  0  0  0  0  0
    4.9680   -7.0970    3.2980 C   0  0  0  0  0  3  0  0  0  0  0  0
    5.8500   -7.2140    2.2210 C   0  0  0  0  0  3  0  0  0  0  0  0
    5.7180   -6.3800    1.0960 C   0  0  0  0  0  0  0  0  0  0  0  0
    4.7090   -5.4040    1.0870 C   0  0  0  0  0  3  0  0  0  0  0  0
    3.8340   -5.2800    2.1670 C   0  0  0  0  0  3  0  0  0  0  0  0
    6.6700   -6.5100   -0.0600 C   0  0  0  0  0  0  0  0  0  0  0  0
    6.0580   -7.0160   -1.1740 F   0  0  0  0  0  0  0  0  0  0  0  0
    7.2030   -5.3180   -0.4610 F   0  0  0  0  0  0  0  0  0  0  0  0
    7.7330   -7.3310    0.1690 F   0  0  0  0  0  0  0  0  0  0  0  0
    5.6390   -3.8190    4.7700 C   0  0  0  0  0  0  0  0  0  0  0  0
    6.3990   -4.2530    5.6960 O   0  0  0  0  0  1  0  0  0  0  0  0
    6.0070   -3.4740    3.6100 O   0  0  0  0  0  0  0  0  0  0  0  0
    2.3650   -3.3770    8.6210 C   0  0  0  0  0  0  0  0  0  0  0  0
    1.4840   -4.1660    9.0850 O   0  0  0  0  0  0  0  0  0  0  0  0
    2.8850   -2.3770    9.1910 O   0  0  0  0  0  1  0  0  0  0  0  0
    3.4310   -2.8050    4.0160 C   0  0  0  0  0  2  0  0  0  0  0  0
    1.9010   -1.4200    5.5120 C   0  0  0  0  0  1  0  0  0  0  0  0
    2.0110   -2.2260    4.2130 C   0  0  0  0  0  3  0  0  0  0  0  0
    1.6530   -1.2970    3.0450 C   0  0  0  0  0  1  0  0  0  0  0  0
  1 30  1  6  0  0  0
  1  5  1  0  0  0  0
  1  2  1  0  0  0  0
  2  3  1  0  0  0  0
  3 27  1  1  0  0  0
  4  3  1  0  0  0  0
  4  8  1  1  0  0  0
  5  4  1  0  0  0  0
  6  7  2  0  0  0  0
  6  5  1  0  0  0  0
  8  9  2  0  0  0  0
  8 13  1  0  0  0  0
  9 10  1  0  0  0  0
 10 11  2  0  0  0  0
 12 11  1  0  0  0  0
 13 12  2  0  0  0  0
 14 15  1  0  0  0  0
 14  6  1  0  0  0  0
 16 15  2  0  0  0  0
 17 16  1  0  0  0  0
 18 17  2  0  0  0  0
 18 19  1  0  0  0  0
 19 14  2  0  0  0  0
 20 23  1  0  0  0  0
 20 17  1  0  0  0  0
 21 20  1  0  0  0  0
 22 20  1  0  0  0  0
 24  1  1  0  0  0  0
 24 25  1  0  0  0  0
 26 24  2  0  0  0  0
 27 28  2  0  0  0  0
 27 29  1  0  0  0  0
 30 32  1  0  0  0  0
 32 31  1  0  0  0  0
 33 32  1  0  0  0  0
M  END
>  <minimizedAffinity>
-2.41596246

$$$$

 OpenBabel09122220493D

 33 35  0  0  1  0  0  0  0  0999 V2000
    2.6000   -3.8010    5.5430 C   0  0  2  0  0  0  0  0  0  0  0  0
    2.3600   -2.4780    6.3160 C   0  0  0  0  0  2  0  0  0  0  0  0
    2.6410   -2.8160    7.7810 C   0  0  1  0  0  3  0  0  0  0  0  0
    3.8230   -3.7820    7.7040 C   0  0  1  0  0  3  0  0  0  0  0  0
    3.6150   -4.5040    6.4230 N   0  0  0  0  0  0  0  0  0  0  0  0
    4.2550   -5.7110    6.2250 C   0  0  0  0  0  0  0  0  0  0  0  0
    4.7660   -6.3820    7.1250 O   0  0  0  0  0  0  0  0  0  0  0  0
    5.2210   -3.1580    7.7960 C   0  0  0  0  0  0  0  0  0  0  0  0
    6.0430   -3.4510    8.8850 C   0  0  0  0  0  3  0  0  0  0  0  0
    7.3100   -2.8750    8.9680 C   0  0  0  0  0  3  0  0  0  0  0  0
    7.7350   -2.0220    7.9610 C   0  0  0  0  0  3  0  0  0  0  0  0
    6.8740   -1.7890    6.9050 C   0  0  0  0  0  3  0  0  0  0  0  0
    5.6540   -2.3470    6.7970 N   0  0  0  0  0  0  0  0  0  0  0  0
    4.3540   -6.2700    4.8670 C   0  0  0  0  0  0  0  0  0  0  0  0
    5.0930   -5.5910    3.8950 C   0  0  0  0  0  3  0  0  0  0  0  0
    5.1400   -6.0870    2.5900 C   0  0  0  0  0  3  0  0  0  0  0  0
    4.4350   -7.2530    2.2440 C   0  0  0  0  0  0  0  0  0  0  0  0
    3.6550   -7.8930    3.2210 C   0  0  0  0  0  3  0  0  0  0  0  0
    3.6020   -7.3930    4.5230 C   0  0  0  0  0  3  0  0  0  0  0  0
    4.4880   -7.7820    0.8380 C   0  0  0  0  0  0  0  0  0  0  0  0
    4.4370   -6.7780   -0.0890 F   0  0  0  0  0  0  0  0  0  0  0  0
    5.6380   -8.4640    0.5570 F   0  0  0  0  0  0  0  0  0  0  0  0
    3.4690   -8.6250    0.5090 F   0  0  0  0  0  0  0  0  0  0  0  0
    3.0530   -3.3860    4.0590 C   0  0  0  0  0  0  0  0  0  0  0  0
    2.5920   -4.1030    3.1100 O   0  0  0  0  0  0  0  0  0  0  0  0
    3.8330   -2.3990    3.9310 O   0  0  0  0  0  1  0  0  0  0  0  0
    2.7300   -1.7320    8.8450 C   0  0  0  0  0  0  0  0  0  0  0  0
    1.6150   -1.2340    9.1940 O   0  0  0  0  0  1  0  0  0  0  0  0
    3.8860   -1.3510    9.1790 O   0  0  0  0  0  0  0  0  0  0  0  0
    1.3090   -4.6800    5.3860 C   0  0  0  0  0  2  0  0  0  0  0  0
    0.9830   -6.0130    7.5350 C   0  0  0  0  0  1  0  0  0  0  0  0
    1.2470   -6.0860    6.0260 C   0  0  0  0  0  3  0  0  0  0  0  0
    0.1200   -6.9080    5.3860 C   0  0  0  0  0  1  0  0  0  0  0  0
  1 30  1  6  0  0  0
  1  2  1  0  0  0  0
  1  5  1  0  0  0  0
  2  3  1  0  0  0  0
  3 27  1  1  0  0  0
  4  3  1  0  0  0  0
  4  8  1  6  0  0  0
  5  4  1  0  0  0  0
  6  5  1  0  0  0  0
  6  7  2  0  0  0  0
  8  9  1  0  0  0  0
  9 10  2  0  0  0  0
 11 10  1  0  0  0  0
 12 11  2  0  0  0  0
 13 12  1  0  0  0  0
 13  8  2  0  0  0  0
 14  6  1  0  0  0  0
 15 14  2  0  0  0  0
 16 15  1  0  0  0  0
 17 16  2  0  0  0  0
 17 18  1  0  0  0  0
 18 19  2  0  0  0  0
 19 14  1  0  0  0  0
 20 17  1  0  0  0  0
 21 20  1  0  0  0  0
 22 20  1  0  0  0  0
 23 20  1  0  0  0  0
 24  1  1  0  0  0  0
 25 24  2  0  0  0  0
 26 24  1  0  0  0  0
 27 29  2  0  0  0  0
 27 28  1  0  0  0  0
 30 32  1  0  0  0  0
 32 31  1  0  0  0  0
 33 32  1  0  0  0  0
M  END
>  <minimizedAffinity>
-2.12728381

$$$$
