
 OpenBabel08152211433D

 38 41  0  0  1  0  0  0  0  0999 V2000
   50.3080   11.0320   58.3950 C   0  0  1  0  0  3  0  0  0  0  0  0
   50.6610    9.7300   58.5220 C   0  0  0  0  0  0  0  0  0  0  0  0
   49.5370    8.7140   58.5340 C   0  0  0  0  0  2  0  0  0  0  0  0
   48.2790    9.1080   57.7250 C   0  0  1  0  0  0  0  0  0  0  0  0
   47.9560   10.4980   57.9340 O   0  0  0  0  0  0  0  0  0  0  0  0
   48.8880   11.4590   58.1680 C   0  0  0  0  0  0  0  0  0  0  0  0
   48.5200   12.6320   58.2050 O   0  0  0  0  0  0  0  0  0  0  0  0
   51.7750    9.1540   58.6850 O   0  0  0  0  0  0  0  0  0  0  0  0
   48.4530    8.8170   56.1970 C   0  0  0  0  0  3  0  0  0  0  0  0
   47.2290    8.1890   55.5160 C   0  0  0  0  0  2  0  0  0  0  0  0
   47.4440    8.3770   54.0160 C   0  0  0  0  0  2  0  0  0  0  0  0
   48.5330    9.4330   53.8750 C   0  0  0  0  0  2  0  0  0  0  0  0
   48.7150   10.0110   55.2730 C   0  0  0  0  0  2  0  0  0  0  0  0
   51.4640   12.3530   58.4930 S   0  0  0  0  0  0  0  0  0  0  0  0
   51.0520   11.9030   53.3140 C   0  0  0  0  0  1  0  0  0  0  0  0
   51.1380   12.8740   54.4560 C   0  0  0  0  0  0  0  0  0  0  0  0
   51.1820   12.3760   55.7670 C   0  0  0  0  0  3  0  0  0  0  0  0
   51.2180   13.2020   56.9160 C   0  0  0  0  0  0  0  0  0  0  0  0
   51.2040   14.6090   56.7420 C   0  0  0  0  0  0  0  0  0  0  0  0
   51.2390   15.0770   55.3940 C   0  0  0  0  0  3  0  0  0  0  0  0
   51.2380   14.2450   54.2650 C   0  0  0  0  0  0  0  0  0  0  0  0
   51.2170   15.6920   57.8600 C   0  0  0  0  0  0  0  0  0  0  0  0
   51.2650   17.0760   57.1790 C   0  0  0  0  0  1  0  0  0  0  0  0
   49.9260   15.6310   58.7330 C   0  0  0  0  0  1  0  0  0  0  0  0
   52.3660   15.6190   58.8890 C   0  0  0  0  0  1  0  0  0  0  0  0
   51.2290   14.8180   52.9970 N   0  0  0  0  0  0  0  0  0  0  0  0
   51.4390   15.8010   52.9060 H   0  0  0  0  0  0  0  0  0  0  0  0
   51.3880   14.2280   52.1940 H   0  0  0  0  0  0  0  0  0  0  0  0
   47.0840    8.2430   58.2910 C   0  0  0  0  0  2  0  0  0  0  0  0
   45.7100    8.9210   58.4600 C   0  0  0  0  0  2  0  0  0  0  0  0
   45.2860    9.1610   59.8880 C   0  0  0  0  0  0  0  0  0  0  0  0
   45.8460   10.2040   60.6360 C   0  0  0  0  0  3  0  0  0  0  0  0
   45.4510   10.4200   61.9590 C   0  0  0  0  0  3  0  0  0  0  0  0
   44.5010    9.5820   62.5370 C   0  0  0  0  0  0  0  0  0  0  0  0
   43.9440    8.5350   61.8150 C   0  0  0  0  0  3  0  0  0  0  0  0
   44.3350    8.3230   60.4930 C   0  0  0  0  0  3  0  0  0  0  0  0
   44.0870    9.7600   63.8250 O   0  0  0  0  0  0  0  0  0  0  0  0
   44.5240   10.5550   64.1710 H   0  0  0  0  0  0  0  0  0  0  0  0
  1 14  1  1  0  0  0
  1  2  1  0  0  0  0
  2  3  1  0  0  0  0
  2  8  2  0  0  0  0
  4  5  1  0  0  0  0
  4 29  1  1  0  0  0
  4  3  1  0  0  0  0
  5  6  1  0  0  0  0
  6  7  2  0  0  0  0
  6  1  1  0  0  0  0
  9  4  1  0  0  0  0
 10  9  1  0  0  0  0
 11 10  1  0  0  0  0
 12 11  1  0  0  0  0
 12 13  1  0  0  0  0
 13  9  1  0  0  0  0
 15 16  1  0  0  0  0
 16 17  1  0  0  0  0
 17 18  2  0  0  0  0
 18 14  1  0  0  0  0
 19 18  1  0  0  0  0
 19 22  1  0  0  0  0
 20 19  2  0  0  0  0
 21 16  2  0  0  0  0
 21 20  1  0  0  0  0
 22 24  1  0  0  0  0
 22 25  1  0  0  0  0
 23 22  1  0  0  0  0
 26 21  1  0  0  0  0
 27 26  1  0  0  0  0
 28 26  1  0  0  0  0
 29 30  1  0  0  0  0
 30 31  1  0  0  0  0
 31 36  2  0  0  0  0
 31 32  1  0  0  0  0
 32 33  2  0  0  0  0
 33 34  1  0  0  0  0
 34 37  1  0  0  0  0
 35 34  2  0  0  0  0
 36 35  1  0  0  0  0
 37 38  1  0  0  0  0
M  END
>  <minimizedAffinity>
-4.6618228

$$$$

 OpenBabel08152211433D

 38 41  0  0  1  0  0  0  0  0999 V2000
   49.0250   10.3020   56.8160 C   0  0  1  0  0  3  0  0  0  0  0  0
   48.4700   11.1190   57.7440 C   0  0  0  0  0  0  0  0  0  0  0  0
   48.6730   10.7410   59.1970 C   0  0  0  0  0  2  0  0  0  0  0  0
   49.9840    9.9810   59.5080 C   0  0  1  0  0  0  0  0  0  0  0  0
   50.2490    8.9910   58.4930 O   0  0  0  0  0  0  0  0  0  0  0  0
   49.8930    9.1360   57.1900 C   0  0  0  0  0  0  0  0  0  0  0  0
   50.2770    8.2930   56.3810 O   0  0  0  0  0  0  0  0  0  0  0  0
   47.7480   12.1530   57.6560 O   0  0  0  0  0  0  0  0  0  0  0  0
   51.2020   10.9520   59.6480 C   0  0  0  0  0  3  0  0  0  0  0  0
   51.2410   12.0930   58.6210 C   0  0  0  0  0  2  0  0  0  0  0  0
   52.2220   13.1220   59.1770 C   0  0  0  0  0  2  0  0  0  0  0  0
   52.4090   12.7750   60.6480 C   0  0  0  0  0  2  0  0  0  0  0  0
   51.3350   11.7390   60.9560 C   0  0  0  0  0  2  0  0  0  0  0  0
   48.7830   10.5110   55.0870 S   0  0  0  0  0  0  0  0  0  0  0  0
   49.6690   15.6010   55.7990 C   0  0  0  0  0  1  0  0  0  0  0  0
   50.1030   14.3750   55.0480 C   0  0  0  0  0  0  0  0  0  0  0  0
   49.4800   13.1510   55.3310 C   0  0  0  0  0  3  0  0  0  0  0  0
   49.8420   11.9290   54.7160 C   0  0  0  0  0  0  0  0  0  0  0  0
   50.8940   11.9330   53.7650 C   0  0  0  0  0  0  0  0  0  0  0  0
   51.4490   13.2080   53.4460 C   0  0  0  0  0  3  0  0  0  0  0  0
   51.0550   14.4160   54.0390 C   0  0  0  0  0  0  0  0  0  0  0  0
   51.4620   10.7070   52.9910 C   0  0  0  0  0  0  0  0  0  0  0  0
   52.3070   11.2400   51.8140 C   0  0  0  0  0  1  0  0  0  0  0  0
   52.3910    9.8390   53.8930 C   0  0  0  0  0  1  0  0  0  0  0  0
   50.4360    9.6980   52.4320 C   0  0  0  0  0  1  0  0  0  0  0  0
   51.7010   15.5940   53.6790 N   0  0  0  0  0  0  0  0  0  0  0  0
   52.2820   15.5970   52.8540 H   0  0  0  0  0  0  0  0  0  0  0  0
   51.3140   16.4760   53.9840 H   0  0  0  0  0  0  0  0  0  0  0  0
   49.7580    9.2230   60.8760 C   0  0  0  0  0  2  0  0  0  0  0  0
   49.0790    9.9870   62.0290 C   0  0  0  0  0  2  0  0  0  0  0  0
   47.5860    9.7940   62.1330 C   0  0  0  0  0  0  0  0  0  0  0  0
   46.9860    8.6060   61.6980 C   0  0  0  0  0  3  0  0  0  0  0  0
   45.6020    8.4340   61.7950 C   0  0  0  0  0  3  0  0  0  0  0  0
   44.8180    9.4590   62.3180 C   0  0  0  0  0  0  0  0  0  0  0  0
   45.3940   10.6490   62.7430 C   0  0  0  0  0  3  0  0  0  0  0  0
   46.7760   10.8170   62.6500 C   0  0  0  0  0  3  0  0  0  0  0  0
   43.4640    9.3310   62.4310 O   0  0  0  0  0  0  0  0  0  0  0  0
   43.2250    8.4340   62.1460 H   0  0  0  0  0  0  0  0  0  0  0  0
  1 14  1  1  0  0  0
  1  6  1  0  0  0  0
  1  2  1  0  0  0  0
  2  3  1  0  0  0  0
  3  4  1  0  0  0  0
  4  9  1  0  0  0  0
  4 29  1  1  0  0  0
  5  4  1  0  0  0  0
  6  5  1  0  0  0  0
  7  6  2  0  0  0  0
  8  2  2  0  0  0  0
  9 13  1  0  0  0  0
 10 11  1  0  0  0  0
 10  9  1  0  0  0  0
 11 12  1  0  0  0  0
 12 13  1  0  0  0  0
 16 17  1  0  0  0  0
 16 15  1  0  0  0  0
 18 14  1  0  0  0  0
 18 17  2  0  0  0  0
 19 18  1  0  0  0  0
 20 19  2  0  0  0  0
 20 21  1  0  0  0  0
 21 16  2  0  0  0  0
 22 19  1  0  0  0  0
 22 24  1  0  0  0  0
 23 22  1  0  0  0  0
 25 22  1  0  0  0  0
 26 28  1  0  0  0  0
 26 21  1  0  0  0  0
 27 26  1  0  0  0  0
 29 30  1  0  0  0  0
 30 31  1  0  0  0  0
 31 36  1  0  0  0  0
 32 33  1  0  0  0  0
 32 31  2  0  0  0  0
 33 34  2  0  0  0  0
 34 37  1  0  0  0  0
 34 35  1  0  0  0  0
 36 35  2  0  0  0  0
 38 37  1  0  0  0  0
M  END
>  <minimizedAffinity>
-3.21920657

$$$$

 OpenBabel08152211433D

 38 41  0  0  1  0  0  0  0  0999 V2000
   50.1940   12.1560   57.1560 C   0  0  1  0  0  3  0  0  0  0  0  0
   49.1640   12.4900   56.3400 C   0  0  0  0  0  0  0  0  0  0  0  0
   49.3280   12.1740   54.8670 C   0  0  0  0  0  2  0  0  0  0  0  0
   50.2140   10.9470   54.5460 C   0  0  1  0  0  0  0  0  0  0  0  0
   51.3830   10.9310   55.3910 O   0  0  0  0  0  0  0  0  0  0  0  0
   51.3990   11.4120   56.6620 C   0  0  0  0  0  0  0  0  0  0  0  0
   52.4090   11.2350   57.3410 O   0  0  0  0  0  0  0  0  0  0  0  0
   48.0630   13.0760   56.5430 O   0  0  0  0  0  0  0  0  0  0  0  0
   49.4240    9.6040   54.6910 C   0  0  0  0  0  3  0  0  0  0  0  0
   48.9780    9.2670   56.1200 C   0  0  0  0  0  2  0  0  0  0  0  0
   47.9040    8.1900   55.9790 C   0  0  0  0  0  2  0  0  0  0  0  0
   47.4660    8.2200   54.5210 C   0  0  0  0  0  2  0  0  0  0  0  0
   48.0950    9.4790   53.9380 C   0  0  0  0  0  2  0  0  0  0  0  0
   50.2330   12.5640   58.8650 S   0  0  0  0  0  0  0  0  0  0  0  0
   45.7390    9.9810   59.4400 C   0  0  0  0  0  1  0  0  0  0  0  0
   47.1660   10.0730   59.8960 C   0  0  0  0  0  0  0  0  0  0  0  0
   48.0110   11.0190   59.2970 C   0  0  0  0  0  3  0  0  0  0  0  0
   49.3820   11.1590   59.6200 C   0  0  0  0  0  0  0  0  0  0  0  0
   49.9410   10.2970   60.5970 C   0  0  0  0  0  0  0  0  0  0  0  0
   49.0340    9.4030   61.2400 C   0  0  0  0  0  3  0  0  0  0  0  0
   47.6690    9.3000   60.9340 C   0  0  0  0  0  0  0  0  0  0  0  0
   51.4200   10.2660   61.0830 C   0  0  0  0  0  0  0  0  0  0  0  0
   51.4480    9.5920   62.4710 C   0  0  0  0  0  1  0  0  0  0  0  0
   52.3210    9.4300   60.1260 C   0  0  0  0  0  1  0  0  0  0  0  0
   52.1470   11.6240   61.1900 C   0  0  0  0  0  1  0  0  0  0  0  0
   46.8910    8.3580   61.5990 N   0  0  0  0  0  0  0  0  0  0  0  0
   47.2620    7.9200   62.4300 H   0  0  0  0  0  0  0  0  0  0  0  0
   45.8880    8.3920   61.4940 H   0  0  0  0  0  0  0  0  0  0  0  0
   50.6990   11.1120   53.0520 C   0  0  0  0  0  2  0  0  0  0  0  0
   51.3720    9.9080   52.3670 C   0  0  0  0  0  2  0  0  0  0  0  0
   50.8100    9.5440   51.0140 C   0  0  0  0  0  0  0  0  0  0  0  0
   51.2400   10.2070   49.8580 C   0  0  0  0  0  3  0  0  0  0  0  0
   50.7140    9.8670   48.6090 C   0  0  0  0  0  3  0  0  0  0  0  0
   49.7470    8.8690   48.5190 C   0  0  0  0  0  0  0  0  0  0  0  0
   49.3000    8.2090   49.6560 C   0  0  0  0  0  3  0  0  0  0  0  0
   49.8300    8.5460   50.9020 C   0  0  0  0  0  3  0  0  0  0  0  0
   49.2090    8.5060   47.3190 O   0  0  0  0  0  0  0  0  0  0  0  0
   49.6590    9.0150   46.6250 H   0  0  0  0  0  0  0  0  0  0  0  0
  1 14  1  6  0  0  0
  2  8  2  0  0  0  0
  2  1  1  0  0  0  0
  3  2  1  0  0  0  0
  4 29  1  6  0  0  0
  4  9  1  0  0  0  0
  4  3  1  0  0  0  0
  4  5  1  0  0  0  0
  5  6  1  0  0  0  0
  6  1  1  0  0  0  0
  6  7  2  0  0  0  0
  9 10  1  0  0  0  0
 11 10  1  0  0  0  0
 12 11  1  0  0  0  0
 13 12  1  0  0  0  0
 13  9  1  0  0  0  0
 14 18  1  0  0  0  0
 15 16  1  0  0  0  0
 16 21  1  0  0  0  0
 17 18  1  0  0  0  0
 17 16  2  0  0  0  0
 18 19  2  0  0  0  0
 19 22  1  0  0  0  0
 19 20  1  0  0  0  0
 21 20  2  0  0  0  0
 21 26  1  0  0  0  0
 22 25  1  0  0  0  0
 22 23  1  0  0  0  0
 24 22  1  0  0  0  0
 26 27  1  0  0  0  0
 28 26  1  0  0  0  0
 30 29  1  0  0  0  0
 31 30  1  0  0  0  0
 32 31  2  0  0  0  0
 33 32  1  0  0  0  0
 34 33  2  0  0  0  0
 34 35  1  0  0  0  0
 35 36  2  0  0  0  0
 36 31  1  0  0  0  0
 37 34  1  0  0  0  0
 38 37  1  0  0  0  0
M  END
>  <minimizedAffinity>
-3.03462672

$$$$

 OpenBabel08152211433D

 38 41  0  0  1  0  0  0  0  0999 V2000
   48.8920   11.6570   57.1630 C   0  0  1  0  0  3  0  0  0  0  0  0
   50.0130   10.9180   56.9820 C   0  0  0  0  0  0  0  0  0  0  0  0
   50.8750   11.2650   55.7840 C   0  0  0  0  0  2  0  0  0  0  0  0
   50.8350   12.7480   55.3460 C   0  0  1  0  0  0  0  0  0  0  0  0
   49.4860   13.2560   55.3970 O   0  0  0  0  0  0  0  0  0  0  0  0
   48.5580   12.8340   56.2940 C   0  0  0  0  0  0  0  0  0  0  0  0
   47.4780   13.4210   56.3370 O   0  0  0  0  0  0  0  0  0  0  0  0
   50.4980    9.9270   57.5990 O   0  0  0  0  0  0  0  0  0  0  0  0
   51.7830   13.6390   56.2150 C   0  0  0  0  0  3  0  0  0  0  0  0
   51.7350   15.1390   55.8930 C   0  0  0  0  0  2  0  0  0  0  0  0
   52.3770   15.8420   57.0870 C   0  0  0  0  0  2  0  0  0  0  0  0
   52.4060   14.8190   58.2150 C   0  0  0  0  0  2  0  0  0  0  0  0
   51.5420   13.6620   57.7290 C   0  0  0  0  0  2  0  0  0  0  0  0
   47.7100   11.3140   58.4190 S   0  0  0  0  0  0  0  0  0  0  0  0
   52.3530   11.7830   60.7480 C   0  0  0  0  0  1  0  0  0  0  0  0
   51.0340   11.0660   60.7790 C   0  0  0  0  0  0  0  0  0  0  0  0
   50.0470   11.4230   59.8480 C   0  0  0  0  0  3  0  0  0  0  0  0
   48.7560   10.8430   59.8170 C   0  0  0  0  0  0  0  0  0  0  0  0
   48.4330    9.8530   60.7790 C   0  0  0  0  0  0  0  0  0  0  0  0
   49.4870    9.4610   61.6570 C   0  0  0  0  0  3  0  0  0  0  0  0
   50.7740   10.0190   61.6520 C   0  0  0  0  0  0  0  0  0  0  0  0
   47.0750    9.1070   60.9370 C   0  0  0  0  0  0  0  0  0  0  0  0
   46.8810    8.2090   59.6960 C   0  0  0  0  0  1  0  0  0  0  0  0
   47.0660    8.1920   62.1980 C   0  0  0  0  0  1  0  0  0  0  0  0
   45.8140    9.9830   61.1020 C   0  0  0  0  0  1  0  0  0  0  0  0
   51.7070    9.5860   62.5870 N   0  0  0  0  0  0  0  0  0  0  0  0
   51.5210    8.7400   63.1050 H   0  0  0  0  0  0  0  0  0  0  0  0
   52.6710    9.8710   62.4830 H   0  0  0  0  0  0  0  0  0  0  0  0
   51.3120   12.7900   53.8400 C   0  0  0  0  0  2  0  0  0  0  0  0
   52.3600   11.7610   53.3780 C   0  0  0  0  0  2  0  0  0  0  0  0
   51.8990   10.8210   52.2910 C   0  0  0  0  0  0  0  0  0  0  0  0
   51.8520   11.2400   50.9550 C   0  0  0  0  0  3  0  0  0  0  0  0
   51.4210   10.3650   49.9530 C   0  0  0  0  0  3  0  0  0  0  0  0
   51.0280    9.0740   50.2910 C   0  0  0  0  0  0  0  0  0  0  0  0
   51.0570    8.6450   51.6120 C   0  0  0  0  0  3  0  0  0  0  0  0
   51.4910    9.5170   52.6100 C   0  0  0  0  0  3  0  0  0  0  0  0
   50.6030    8.1890   49.3430 O   0  0  0  0  0  0  0  0  0  0  0  0
   50.6910    8.6170   48.4760 H   0  0  0  0  0  0  0  0  0  0  0  0
  1 14  1  6  0  0  0
  2  1  1  0  0  0  0
  2  8  2  0  0  0  0
  3  2  1  0  0  0  0
  4 29  1  6  0  0  0
  4  5  1  0  0  0  0
  4  3  1  0  0  0  0
  4  9  1  0  0  0  0
  5  6  1  0  0  0  0
  6  7  2  0  0  0  0
  6  1  1  0  0  0  0
  9 13  1  0  0  0  0
 10  9  1  0  0  0  0
 10 11  1  0  0  0  0
 11 12  1  0  0  0  0
 13 12  1  0  0  0  0
 14 18  1  0  0  0  0
 15 16  1  0  0  0  0
 16 21  1  0  0  0  0
 17 16  2  0  0  0  0
 18 17  1  0  0  0  0
 18 19  2  0  0  0  0
 19 22  1  0  0  0  0
 19 20  1  0  0  0  0
 21 20  2  0  0  0  0
 21 26  1  0  0  0  0
 22 25  1  0  0  0  0
 22 24  1  0  0  0  0
 23 22  1  0  0  0  0
 26 27  1  0  0  0  0
 28 26  1  0  0  0  0
 30 29  1  0  0  0  0
 31 36  1  0  0  0  0
 31 30  1  0  0  0  0
 32 31  2  0  0  0  0
 33 34  2  0  0  0  0
 33 32  1  0  0  0  0
 34 35  1  0  0  0  0
 35 36  2  0  0  0  0
 37 34  1  0  0  0  0
 38 37  1  0  0  0  0
M  END
>  <minimizedAffinity>
-1.94563031

$$$$

 OpenBabel08152211433D

 38 41  0  0  1  0  0  0  0  0999 V2000
   48.4400   12.8140   57.7460 C   0  0  1  0  0  3  0  0  0  0  0  0
   49.6790   12.7750   58.2940 C   0  0  0  0  0  0  0  0  0  0  0  0
   50.8400   13.1240   57.3840 C   0  0  0  0  0  2  0  0  0  0  0  0
   50.5160   14.1250   56.2490 C   0  0  1  0  0  0  0  0  0  0  0  0
   49.2380   13.8200   55.6540 O   0  0  0  0  0  0  0  0  0  0  0  0
   48.1980   13.2810   56.3410 C   0  0  0  0  0  0  0  0  0  0  0  0
   47.1120   13.1780   55.7730 O   0  0  0  0  0  0  0  0  0  0  0  0
   50.1020   12.4540   59.4410 O   0  0  0  0  0  0  0  0  0  0  0  0
   50.5390   15.6050   56.7540 C   0  0  0  0  0  3  0  0  0  0  0  0
   51.7900   15.9970   57.5520 C   0  0  0  0  0  2  0  0  0  0  0  0
   51.8080   17.5240   57.5770 C   0  0  0  0  0  2  0  0  0  0  0  0
   50.8440   17.9750   56.4880 C   0  0  0  0  0  2  0  0  0  0  0  0
   50.5120   16.7150   55.6970 C   0  0  0  0  0  2  0  0  0  0  0  0
   46.9940   12.3150   58.6130 S   0  0  0  0  0  0  0  0  0  0  0  0
   48.1860   10.7240   63.4340 C   0  0  0  0  0  1  0  0  0  0  0  0
   48.2340   10.3620   61.9780 C   0  0  0  0  0  0  0  0  0  0  0  0
   47.6590   11.2350   61.0430 C   0  0  0  0  0  3  0  0  0  0  0  0
   47.6090   10.9710   59.6540 C   0  0  0  0  0  0  0  0  0  0  0  0
   48.1640    9.7570   59.1730 C   0  0  0  0  0  0  0  0  0  0  0  0
   48.8090    8.9330   60.1430 C   0  0  0  0  0  3  0  0  0  0  0  0
   48.8820    9.2260   61.5120 C   0  0  0  0  0  0  0  0  0  0  0  0
   48.1970    9.2620   57.6980 C   0  0  0  0  0  0  0  0  0  0  0  0
   46.8010    8.6970   57.3560 C   0  0  0  0  0  1  0  0  0  0  0  0
   48.4980   10.4270   56.7070 C   0  0  0  0  0  1  0  0  0  0  0  0
   49.2520    8.1900   57.3450 C   0  0  0  0  0  1  0  0  0  0  0  0
   49.5000    8.3230   62.3700 N   0  0  0  0  0  0  0  0  0  0  0  0
   50.0690    7.5880   61.9750 H   0  0  0  0  0  0  0  0  0  0  0  0
   49.6900    8.6040   63.3210 H   0  0  0  0  0  0  0  0  0  0  0  0
   51.6250   13.9320   55.1410 C   0  0  0  0  0  2  0  0  0  0  0  0
   52.4090   12.6050   55.1170 C   0  0  0  0  0  2  0  0  0  0  0  0
   51.6960   11.4520   54.4550 C   0  0  0  0  0  0  0  0  0  0  0  0
   51.8300   10.1480   54.9480 C   0  0  0  0  0  3  0  0  0  0  0  0
   51.1690    9.0840   54.3290 C   0  0  0  0  0  3  0  0  0  0  0  0
   50.3800    9.3250   53.2070 C   0  0  0  0  0  0  0  0  0  0  0  0
   50.2440   10.6090   52.6970 C   0  0  0  0  0  3  0  0  0  0  0  0
   50.9010   11.6720   53.3190 C   0  0  0  0  0  3  0  0  0  0  0  0
   49.7170    8.3150   52.5750 O   0  0  0  0  0  0  0  0  0  0  0  0
   49.8680    7.4980   53.0780 H   0  0  0  0  0  0  0  0  0  0  0  0
  1  2  1  0  0  0  0
  1 14  1  6  0  0  0
  2  8  2  0  0  0  0
  3  2  1  0  0  0  0
  4 29  1  6  0  0  0
  4  9  1  0  0  0  0
  4  3  1  0  0  0  0
  5  4  1  0  0  0  0
  5  6  1  0  0  0  0
  6  1  1  0  0  0  0
  7  6  2  0  0  0  0
  9 10  1  0  0  0  0
 10 11  1  0  0  0  0
 12 11  1  0  0  0  0
 13 12  1  0  0  0  0
 13  9  1  0  0  0  0
 14 18  1  0  0  0  0
 16 15  1  0  0  0  0
 17 16  2  0  0  0  0
 18 17  1  0  0  0  0
 19 18  2  0  0  0  0
 19 20  1  0  0  0  0
 20 21  2  0  0  0  0
 21 16  1  0  0  0  0
 21 26  1  0  0  0  0
 22 19  1  0  0  0  0
 23 22  1  0  0  0  0
 24 22  1  0  0  0  0
 25 22  1  0  0  0  0
 26 28  1  0  0  0  0
 27 26  1  0  0  0  0
 30 29  1  0  0  0  0
 31 32  1  0  0  0  0
 31 30  1  0  0  0  0
 33 32  2  0  0  0  0
 34 33  1  0  0  0  0
 35 34  2  0  0  0  0
 35 36  1  0  0  0  0
 36 31  2  0  0  0  0
 37 38  1  0  0  0  0
 37 34  1  0  0  0  0
M  END
>  <minimizedAffinity>
-1.71146941

$$$$
