REMARK  Name = 
REMARK  13 active torsions:
REMARK  status: ('A' for Active; 'I' for Inactive)
REMARK    1  A    between atoms: C_1  and  C_2
REMARK    2  A    between atoms: C_4  and  S_13
REMARK    3  A    between atoms: C_5  and  C_9
REMARK    4  A    between atoms: C_7  and  N_8
REMARK    5  A    between atoms: C_9  and  C_10
REMARK    6  A    between atoms: C_9  and  C_11
REMARK    7  A    between atoms: C_9  and  C_12
REMARK    8  A    between atoms: S_13  and  C_14
REMARK    9  A    between atoms: C_17  and  C_21
REMARK   10  A    between atoms: C_17  and  C_30
REMARK   11  A    between atoms: C_21  and  C_22
REMARK   12  A    between atoms: C_22  and  C_23
REMARK   13  A    between atoms: C_26  and  O_29
REMARK                            x       y       z     vdW  Elec       q    Type
REMARK                         _______ _______ _______ _____ _____    ______ ____
ROOT
ATOM      1  C   UNL     1      -2.868   3.281  -0.622  0.00  0.00    +0.085 C 
ATOM      2  C   UNL     1      -3.253   3.622   0.632  0.00  0.00    -0.107 C 
ATOM      3  C   UNL     1      -2.854   5.001   1.119  0.00  0.00    +0.068 C 
ATOM      4  C   UNL     1      -2.725   6.081   0.019  0.00  0.00    +0.120 C 
ATOM      5  O   UNL     1      -2.067   5.542  -1.146  0.00  0.00    -0.454 OA
ATOM      6  C   UNL     1      -2.175   4.246  -1.538  0.00  0.00    +0.346 C 
ATOM      7  O   UNL     1      -1.679   3.918  -2.615  0.00  0.00    -0.244 OA
ATOM      8  O   UNL     1      -3.863   2.994   1.544  0.00  0.00    -0.876 OA
ENDROOT
BRANCH   4   9
ATOM      9  C   UNL     1      -4.115   6.682  -0.374  0.00  0.00    +0.033 C 
ATOM     10  C   UNL     1      -4.069   7.751  -1.475  0.00  0.00    +0.007 C 
ATOM     11  C   UNL     1      -5.502   7.886  -1.985  0.00  0.00    +0.000 C 
ATOM     12  C   UNL     1      -6.245   6.653  -1.488  0.00  0.00    +0.000 C 
ATOM     13  C   UNL     1      -5.165   5.724  -0.947  0.00  0.00    +0.007 C 
ENDBRANCH   4   9
BRANCH   1  14
ATOM     14  S   UNL     1      -3.128   1.681  -1.302  0.00  0.00    -0.083 S 
BRANCH  14  18
ATOM     15  C   UNL     1       1.931   1.385  -0.071  0.00  0.00    +0.045 C 
ATOM     16  C   UNL     1       0.628   0.640  -0.083  0.00  0.00    -0.029 A 
ATOM     17  C   UNL     1      -0.529   1.304  -0.517  0.00  0.00    +0.020 A 
ATOM     18  C   UNL     1      -1.814   0.711  -0.526  0.00  0.00    +0.017 A 
ATOM     19  C   UNL     1      -1.949  -0.624  -0.068  0.00  0.00    -0.027 A 
ATOM     20  C   UNL     1      -0.740  -1.292   0.290  0.00  0.00    +0.028 A 
ATOM     21  C   UNL     1       0.532  -0.702   0.260  0.00  0.00    +0.028 A 
BRANCH  19  22
ATOM     22  C   UNL     1      -3.263  -1.454   0.026  0.00  0.00    -0.012 C 
ATOM     23  C   UNL     1      -3.386  -2.294  -1.263  0.00  0.00    +0.015 C 
ATOM     24  C   UNL     1      -3.237  -2.435   1.237  0.00  0.00    +0.015 C 
ATOM     25  C   UNL     1      -4.576  -0.663   0.215  0.00  0.00    +0.015 C 
ENDBRANCH  19  22
BRANCH  21  26
ATOM     26  N   UNL     1       1.635  -1.440   0.675  0.00  0.00    -0.358 N 
ATOM     27  H   UNL     1       1.539  -2.439   0.783  0.00  0.00    +0.142 HD
ATOM     28  H   UNL     1       2.560  -1.073   0.505  0.00  0.00    +0.142 HD
ENDBRANCH  21  26
ENDBRANCH  14  18
ENDBRANCH   1  14
BRANCH   4  29
ATOM     29  C   UNL     1      -1.807   7.224   0.608  0.00  0.00    +0.053 C 
BRANCH  29  30
ATOM     30  C   UNL     1      -0.618   7.714  -0.241  0.00  0.00    +0.039 C 
BRANCH  30  31
ATOM     31  C   UNL     1      -0.873   8.973  -1.033  0.00  0.00    -0.047 A 
ATOM     32  C   UNL     1      -0.934   8.939  -2.432  0.00  0.00    +0.007 A 
ATOM     33  C   UNL     1      -1.168  10.109  -3.160  0.00  0.00    +0.045 A 
ATOM     34  C   UNL     1      -1.331  11.316  -2.486  0.00  0.00    +0.117 A 
ATOM     35  C   UNL     1      -1.262  11.371  -1.100  0.00  0.00    +0.045 A 
ATOM     36  C   UNL     1      -1.033  10.202  -0.374  0.00  0.00    +0.007 A 
BRANCH  34  37
ATOM     37  O   UNL     1      -1.563  12.480  -3.159  0.00  0.00    -0.507 OA
ATOM     38  H   UNL     1      -1.636  12.268  -4.104  0.00  0.00    +0.292 HD
ENDBRANCH  34  37
ENDBRANCH  30  31
ENDBRANCH  29  30
ENDBRANCH   4  29
TORSDOF 9
