REMARK  Name = 
REMARK  9 active torsions:
REMARK  status: ('A' for Active; 'I' for Inactive)
REMARK    1  A    between atoms: C_1  and  O_2
REMARK    2  A    between atoms: O_2  and  C_3
REMARK    3  A    between atoms: C_13  and  C_14
REMARK    4  A    between atoms: C_15  and  O_16
REMARK    5  A    between atoms: N_23  and  C_24
REMARK    6  A    between atoms: C_24  and  C_25
REMARK    7  A    between atoms: C_25  and  C_26
REMARK    8  A    between atoms: C_26  and  C_27
REMARK    9  A    between atoms: C_26  and  C_28
REMARK                            x       y       z     vdW  Elec       q    Type
REMARK                         _______ _______ _______ _____ _____    ______ ____
ROOT
ATOM      1  C   UNL     1       3.885   4.784   5.096  0.00  0.00    +0.170 A 
ATOM      2  C   UNL     1       4.320   4.658   6.364  0.00  0.00    +0.148 A 
ATOM      3  C   UNL     1       4.392   5.817   7.272  0.00  0.00    +0.060 A 
ATOM      4  C   UNL     1       4.935   5.767   8.565  0.00  0.00    +0.016 A 
ATOM      5  C   UNL     1       4.944   6.905   9.368  0.00  0.00    +0.021 A 
ATOM      6  C   UNL     1       4.418   8.071   8.854  0.00  0.00    +0.113 A 
ATOM      7  N   UNL     1       3.914   8.164   7.608  0.00  0.00    -0.237 NA
ATOM      8  C   UNL     1       3.918   7.058   6.829  0.00  0.00    +0.147 A 
ATOM      9  N   UNL     1       3.441   7.181   5.501  0.00  0.00    -0.292 N 
ATOM     10  C   UNL     1       3.414   6.122   4.626  0.00  0.00    +0.271 A 
ATOM     11  O   UNL     1       3.000   6.201   3.466  0.00  0.00    -0.267 OA
ENDROOT
BRANCH   1  22
ATOM     12  C   UNL     1       2.953   0.981  -0.130  0.00  0.00    +0.122 A 
ATOM     13  C   UNL     1       2.576   2.311  -0.330  0.00  0.00    +0.050 A 
ATOM     14  C   UNL     1       2.716   3.260   0.689  0.00  0.00    +0.054 A 
ATOM     15  C   UNL     1       3.238   2.897   1.933  0.00  0.00    +0.148 A 
ATOM     16  C   UNL     1       3.606   1.576   2.109  0.00  0.00    +0.178 A 
ATOM     17  C   UNL     1       3.475   0.607   1.102  0.00  0.00    +0.080 A 
ATOM     18  S   UNL     1       4.259   1.125   3.659  0.00  0.00    +0.141 S 
ATOM     19  O   UNL     1       5.630   0.737   3.415  0.00  0.00    -0.129 OA
ATOM     20  O   UNL     1       3.319   0.184   4.227  0.00  0.00    -0.129 OA
ATOM     21  N   UNL     1       4.243   2.459   4.526  0.00  0.00    -0.131 N 
ATOM     22  C   UNL     1       3.822   3.623   4.107  0.00  0.00    +0.308 C 
ATOM     23  N   UNL     1       3.350   3.848   2.893  0.00  0.00    -0.200 N 
ATOM     24  H   UNL     1       4.589   2.391   5.474  0.00  0.00    +0.339 HD
ATOM     25  H   UNL     1       3.051   4.812   2.678  0.00  0.00    +0.298 HD
BRANCH  12  27
ATOM     26  C   UNL     1       3.112  -1.206  -1.065  0.00  0.00    +0.277 C 
ATOM     27  O   UNL     1       2.760   0.167  -1.205  0.00  0.00    -0.495 OA
ENDBRANCH  12  27
ENDBRANCH   1  22
BRANCH   2  28
ATOM     28  O   UNL     1       4.684   3.407   6.849  0.00  0.00    -0.505 OA
ATOM     29  H   UNL     1       4.666   3.417   7.827  0.00  0.00    +0.292 HD
ENDBRANCH   2  28
BRANCH   9  30
ATOM     30  C   UNL     1       2.946   8.493   5.065  0.00  0.00    +0.127 C 
BRANCH  30  31
ATOM     31  C   UNL     1       1.469   8.687   5.426  0.00  0.00    +0.025 C 
BRANCH  31  32
ATOM     32  C   UNL     1       0.869   9.989   4.866  0.00  0.00    -0.016 C 
ATOM     33  C   UNL     1      -0.639  10.020   5.126  0.00  0.00    +0.007 C 
ATOM     34  C   UNL     1       1.522  11.234   5.469  0.00  0.00    +0.007 C 
ENDBRANCH  31  32
ENDBRANCH  30  31
ENDBRANCH   9  30
TORSDOF 6
