
 OpenBabel09122222393D

 34 37  0  0  1  0  0  0  0  0999 V2000
    5.3080    0.6310   10.5750 C   0  0  0  0  0  0  0  0  0  0  0  0
    4.3800    0.3120   11.4970 C   0  0  0  0  0  0  0  0  0  0  0  0
    3.5570   -0.9050   11.3720 C   0  0  0  0  0  0  0  0  0  0  0  0
    2.5060   -1.2330   12.2410 C   0  0  0  0  0  3  0  0  0  0  0  0
    1.7910   -2.4150   12.0660 C   0  0  0  0  0  3  0  0  0  0  0  0
    2.1390   -3.2380   11.0160 C   0  0  0  0  0  3  0  0  0  0  0  0
    3.1230   -2.9440   10.1450 N   0  0  0  0  0  0  0  0  0  0  0  0
    3.8060   -1.7880   10.3140 C   0  0  0  0  0  0  0  0  0  0  0  0
    4.7990   -1.4590    9.3590 N   0  0  0  0  0  0  0  0  0  0  0  0
    5.5400   -0.3050    9.4330 C   0  0  0  0  0  0  0  0  0  0  0  0
    6.4130    0.0040    8.6170 O   0  0  0  0  0  0  0  0  0  0  0  0
    8.4190    6.0630   12.4350 C   0  0  0  0  0  0  0  0  0  0  0  0
    7.6790    5.4630   13.4560 C   0  0  0  0  0  3  0  0  0  0  0  0
    6.9560    4.2870   13.2260 C   0  0  0  0  0  3  0  0  0  0  0  0
    6.9600    3.6840   11.9660 C   0  0  0  0  0  0  0  0  0  0  0  0
    7.7000    4.2940   10.9700 C   0  0  0  0  0  0  0  0  0  0  0  0
    8.4320    5.4730   11.1770 C   0  0  0  0  0  3  0  0  0  0  0  0
    7.7050    3.5400    9.4000 S   0  0  0  0  0  0  0  0  0  0  0  0
    9.0660    3.1110    9.1700 O   0  0  0  0  0  0  0  0  0  0  0  0
    7.0710    4.4830    8.5050 O   0  0  0  0  0  0  0  0  0  0  0  0
    6.7740    2.2590    9.5450 N   0  0  0  0  0  0  0  0  0  0  0  0
    6.1630    1.8940   10.6410 C   0  0  1  0  0  3  0  0  0  0  0  0
    6.2410    2.5480   11.7870 N   0  0  0  0  0  0  0  0  0  0  0  0
    6.6520    1.6870    8.7200 H   0  0  0  0  0  0  0  0  0  0  0  0
    5.7150    2.1590   12.5850 H   0  0  0  0  0  0  0  0  0  0  0  0
    8.2810    8.3600   13.0580 C   0  0  0  0  0  1  0  0  0  0  0  0
    9.0700    7.2030   12.7980 O   0  0  0  0  0  0  0  0  0  0  0  0
    4.2050    1.1230   12.6120 O   0  0  0  0  0  0  0  0  0  0  0  0
    3.7530    0.6180   13.3170 H   0  0  0  0  0  0  0  0  0  0  0  0
    5.0420   -2.4060    8.2630 C   0  0  0  0  0  2  0  0  0  0  0  0
    4.5160   -1.8690    6.9270 C   0  0  0  0  0  2  0  0  0  0  0  0
    3.0720   -2.3030    6.6190 C   0  0  0  0  0  3  0  0  0  0  0  0
    2.1010   -1.1810    6.9970 C   0  0  0  0  0  1  0  0  0  0  0  0
    2.8800   -2.6770    5.1490 C   0  0  0  0  0  1  0  0  0  0  0  0
  1  2  2  0  0  0  0
  2 28  1  0  0  0  0
  3  2  1  0  0  0  0
  3  4  1  0  0  0  0
  5  4  2  0  0  0  0
  6  5  1  0  0  0  0
  7  8  1  0  0  0  0
  7  6  2  0  0  0  0
  8  3  2  0  0  0  0
  9 10  1  0  0  0  0
  9  8  1  0  0  0  0
 10  1  1  0  0  0  0
 11 10  2  0  0  0  0
 12 27  1  0  0  0  0
 12 13  1  0  0  0  0
 14 13  2  0  0  0  0
 15 14  1  0  0  0  0
 16 17  1  0  0  0  0
 16 15  2  0  0  0  0
 17 12  2  0  0  0  0
 18 21  1  0  0  0  0
 18 16  1  0  0  0  0
 19 18  2  0  0  0  0
 20 18  2  0  0  0  0
 21 22  1  0  0  0  0
 22  1  1  6  0  0  0
 22 23  1  0  0  0  0
 23 15  1  0  0  0  0
 23 25  1  0  0  0  0
 24 21  1  0  0  0  0
 27 26  1  0  0  0  0
 28 29  1  0  0  0  0
 30  9  1  0  0  0  0
 31 30  1  0  0  0  0
 32 31  1  0  0  0  0
 32 33  1  0  0  0  0
 34 32  1  0  0  0  0
M  END
>  <minimizedAffinity>
-7.36539793

$$$$
