
 OpenBabel09122222393D

 34 37  0  0  1  0  0  0  0  0999 V2000
    7.6580    0.8960    9.0940 C   0  0  0  0  0  0  0  0  0  0  0  0
    8.6640    0.6560    8.2320 C   0  0  0  0  0  0  0  0  0  0  0  0
    8.6280   -0.4910    7.3070 C   0  0  0  0  0  0  0  0  0  0  0  0
    9.6900   -0.8520    6.4630 C   0  0  0  0  0  3  0  0  0  0  0  0
    9.5650   -1.9390    5.6010 C   0  0  0  0  0  3  0  0  0  0  0  0
    8.3830   -2.6470    5.6110 C   0  0  0  0  0  3  0  0  0  0  0  0
    7.3530   -2.3480    6.4260 N   0  0  0  0  0  0  0  0  0  0  0  0
    7.4840   -1.2980    7.2690 C   0  0  0  0  0  0  0  0  0  0  0  0
    6.4190   -1.0290    8.1630 N   0  0  0  0  0  0  0  0  0  0  0  0
    6.4580    0.0060    9.0660 C   0  0  0  0  0  0  0  0  0  0  0  0
    5.5430    0.2640    9.8530 O   0  0  0  0  0  0  0  0  0  0  0  0
    8.0770    6.7200   12.0170 C   0  0  0  0  0  0  0  0  0  0  0  0
    8.3090    6.7650   10.6410 C   0  0  0  0  0  3  0  0  0  0  0  0
    8.2510    5.6040    9.8620 C   0  0  0  0  0  3  0  0  0  0  0  0
    7.9590    4.3690   10.4460 C   0  0  0  0  0  0  0  0  0  0  0  0
    7.7310    4.3470   11.8100 C   0  0  0  0  0  0  0  0  0  0  0  0
    7.7830    5.4980   12.6110 C   0  0  0  0  0  3  0  0  0  0  0  0
    7.3650    2.8080   12.5370 S   0  0  0  0  0  0  0  0  0  0  0  0
    6.0090    2.9120   13.0260 O   0  0  0  0  0  0  0  0  0  0  0  0
    8.4550    2.5280   13.4460 O   0  0  0  0  0  0  0  0  0  0  0  0
    7.4060    1.7580   11.3420 N   0  0  0  0  0  0  0  0  0  0  0  0
    7.6610    2.0490   10.0940 C   0  0  1  0  0  3  0  0  0  0  0  0
    7.9200    3.2690    9.6550 N   0  0  0  0  0  0  0  0  0  0  0  0
    7.2180    0.7920   11.5760 H   0  0  0  0  0  0  0  0  0  0  0  0
    8.1030    3.3740    8.6440 H   0  0  0  0  0  0  0  0  0  0  0  0
    9.4040    8.6230   12.5630 C   0  0  0  0  0  1  0  0  0  0  0  0
    8.1670    7.9230   12.6490 O   0  0  0  0  0  0  0  0  0  0  0  0
    9.7520    1.5190    8.1820 O   0  0  0  0  0  0  0  0  0  0  0  0
   10.2190    1.4090    7.3290 H   0  0  0  0  0  0  0  0  0  0  0  0
    5.2300   -1.8890    8.0980 C   0  0  0  0  0  2  0  0  0  0  0  0
    4.0860   -1.2130    7.3330 C   0  0  0  0  0  2  0  0  0  0  0  0
    3.1810   -2.2070    6.5840 C   0  0  0  0  0  3  0  0  0  0  0  0
    1.9230   -1.4900    6.0870 C   0  0  0  0  0  1  0  0  0  0  0  0
    3.8970   -2.8680    5.4050 C   0  0  0  0  0  1  0  0  0  0  0  0
  2  1  2  0  0  0  0
  3  2  1  0  0  0  0
  4  3  2  0  0  0  0
  5  6  2  0  0  0  0
  5  4  1  0  0  0  0
  6  7  1  0  0  0  0
  7  8  2  0  0  0  0
  8  3  1  0  0  0  0
  8  9  1  0  0  0  0
  9 10  1  0  0  0  0
 10  1  1  0  0  0  0
 10 11  2  0  0  0  0
 12 17  1  0  0  0  0
 12 27  1  0  0  0  0
 13 12  2  0  0  0  0
 14 15  2  0  0  0  0
 14 13  1  0  0  0  0
 15 16  1  0  0  0  0
 16 18  1  0  0  0  0
 16 17  2  0  0  0  0
 18 19  2  0  0  0  0
 18 20  2  0  0  0  0
 21 24  1  0  0  0  0
 21 18  1  0  0  0  0
 22  1  1  1  0  0  0
 22 21  1  0  0  0  0
 23 22  1  0  0  0  0
 23 15  1  0  0  0  0
 25 23  1  0  0  0  0
 26 27  1  0  0  0  0
 28  2  1  0  0  0  0
 29 28  1  0  0  0  0
 30  9  1  0  0  0  0
 31 30  1  0  0  0  0
 32 31  1  0  0  0  0
 33 32  1  0  0  0  0
 34 32  1  0  0  0  0
M  END
>  <minimizedAffinity>
-6.961905

$$$$
