
 OpenBabel09122222393D

 34 37  0  0  1  0  0  0  0  0999 V2000
    5.5770    0.9420   10.8270 C   0  0  0  0  0  0  0  0  0  0  0  0
    5.3040    1.9540   11.6720 C   0  0  0  0  0  0  0  0  0  0  0  0
    6.3150    2.9730   12.0060 C   0  0  0  0  0  0  0  0  0  0  0  0
    6.1220    3.9860   12.9580 C   0  0  0  0  0  3  0  0  0  0  0  0
    7.1220    4.9250   13.1980 C   0  0  0  0  0  3  0  0  0  0  0  0
    8.2980    4.8230   12.4850 C   0  0  0  0  0  3  0  0  0  0  0  0
    8.5300    3.8480   11.5840 N   0  0  0  0  0  0  0  0  0  0  0  0
    7.5580    2.9330   11.3640 C   0  0  0  0  0  0  0  0  0  0  0  0
    7.8340    1.8790   10.4590 N   0  0  0  0  0  0  0  0  0  0  0  0
    6.9210    0.8920   10.1750 C   0  0  0  0  0  0  0  0  0  0  0  0
    7.1340   -0.0340    9.3880 O   0  0  0  0  0  0  0  0  0  0  0  0
    1.3360   -4.0210   10.9640 C   0  0  0  0  0  0  0  0  0  0  0  0
    1.8090   -3.6530   12.2260 C   0  0  0  0  0  3  0  0  0  0  0  0
    2.7220   -2.6020   12.3740 C   0  0  0  0  0  3  0  0  0  0  0  0
    3.1810   -1.8960   11.2600 C   0  0  0  0  0  0  0  0  0  0  0  0
    2.6980   -2.2760   10.0210 C   0  0  0  0  0  0  0  0  0  0  0  0
    1.7830   -3.3260    9.8480 C   0  0  0  0  0  3  0  0  0  0  0  0
    3.2690   -1.3930    8.6330 S   0  0  0  0  0  0  0  0  0  0  0  0
    2.1130   -0.7160    8.0890 O   0  0  0  0  0  0  0  0  0  0  0  0
    4.0070   -2.3450    7.8330 O   0  0  0  0  0  0  0  0  0  0  0  0
    4.2810   -0.3090    9.2110 N   0  0  0  0  0  0  0  0  0  0  0  0
    4.5770   -0.1560   10.4740 C   0  0  1  0  0  3  0  0  0  0  0  0
    4.0690   -0.8890   11.4500 N   0  0  0  0  0  0  0  0  0  0  0  0
    4.7220    0.3060    8.5400 H   0  0  0  0  0  0  0  0  0  0  0  0
    4.3780   -0.6710   12.4100 H   0  0  0  0  0  0  0  0  0  0  0  0
   -0.2830   -5.2960   12.1630 C   0  0  0  0  0  1  0  0  0  0  0  0
    0.4550   -5.0600   10.9680 O   0  0  0  0  0  0  0  0  0  0  0  0
    4.0330    2.0680   12.2260 O   0  0  0  0  0  0  0  0  0  0  0  0
    3.8950    2.9830   12.5410 H   0  0  0  0  0  0  0  0  0  0  0  0
    9.1450    1.8640    9.7960 C   0  0  0  0  0  2  0  0  0  0  0  0
    9.0190    2.1240    8.2910 C   0  0  0  0  0  2  0  0  0  0  0  0
    9.0840    3.6170    7.9210 C   0  0  0  0  0  3  0  0  0  0  0  0
    9.5740    3.7740    6.4800 C   0  0  0  0  0  1  0  0  0  0  0  0
    7.7310    4.3130    8.0850 C   0  0  0  0  0  1  0  0  0  0  0  0
  1  2  2  0  0  0  0
  2  3  1  0  0  0  0
  2 28  1  0  0  0  0
  3  4  1  0  0  0  0
  4  5  2  0  0  0  0
  6  5  1  0  0  0  0
  7  6  2  0  0  0  0
  8  7  1  0  0  0  0
  8  3  2  0  0  0  0
  9  8  1  0  0  0  0
 10  9  1  0  0  0  0
 10  1  1  0  0  0  0
 11 10  2  0  0  0  0
 12 27  1  0  0  0  0
 12 13  1  0  0  0  0
 13 14  2  0  0  0  0
 15 23  1  0  0  0  0
 15 14  1  0  0  0  0
 16 15  2  0  0  0  0
 17 16  1  0  0  0  0
 17 12  2  0  0  0  0
 18 21  1  0  0  0  0
 18 16  1  0  0  0  0
 19 18  2  0  0  0  0
 20 18  2  0  0  0  0
 21 22  1  0  0  0  0
 22  1  1  6  0  0  0
 22 23  1  0  0  0  0
 23 25  1  0  0  0  0
 24 21  1  0  0  0  0
 27 26  1  0  0  0  0
 28 29  1  0  0  0  0
 30  9  1  0  0  0  0
 31 30  1  0  0  0  0
 32 34  1  0  0  0  0
 32 31  1  0  0  0  0
 33 32  1  0  0  0  0
M  END
>  <minimizedAffinity>
-6.68722963

$$$$
