
 OpenBabel09122222393D

 34 37  0  0  1  0  0  0  0  0999 V2000
    6.7090    0.4790   10.6640 C   0  0  0  0  0  0  0  0  0  0  0  0
    7.6180   -0.5140   10.6530 C   0  0  0  0  0  0  0  0  0  0  0  0
    7.2100   -1.9300   10.6030 C   0  0  0  0  0  0  0  0  0  0  0  0
    8.1050   -3.0070   10.6960 C   0  0  0  0  0  3  0  0  0  0  0  0
    7.6390   -4.3170   10.6170 C   0  0  0  0  0  3  0  0  0  0  0  0
    6.2850   -4.5200   10.4570 C   0  0  0  0  0  3  0  0  0  0  0  0
    5.3930   -3.5120   10.3920 N   0  0  0  0  0  0  0  0  0  0  0  0
    5.8510   -2.2420   10.4800 C   0  0  0  0  0  0  0  0  0  0  0  0
    4.9000   -1.1930   10.4710 N   0  0  0  0  0  0  0  0  0  0  0  0
    5.2590    0.1300   10.5670 C   0  0  0  0  0  0  0  0  0  0  0  0
    4.4520    1.0630   10.5570 O   0  0  0  0  0  0  0  0  0  0  0  0
    7.5200    6.6930   12.5010 C   0  0  0  0  0  0  0  0  0  0  0  0
    6.8690    5.9070   13.4540 C   0  0  0  0  0  3  0  0  0  0  0  0
    6.6210    4.5500   13.2210 C   0  0  0  0  0  3  0  0  0  0  0  0
    7.0210    3.9490   12.0250 C   0  0  0  0  0  0  0  0  0  0  0  0
    7.6650    4.7440   11.0960 C   0  0  0  0  0  0  0  0  0  0  0  0
    7.9250    6.1070   11.3080 C   0  0  0  0  0  3  0  0  0  0  0  0
    8.1660    3.9940    9.6060 S   0  0  0  0  0  0  0  0  0  0  0  0
    9.6100    4.0430    9.6020 O   0  0  0  0  0  0  0  0  0  0  0  0
    7.4050    4.6410    8.5600 O   0  0  0  0  0  0  0  0  0  0  0  0
    7.6980    2.4770    9.7220 N   0  0  0  0  0  0  0  0  0  0  0  0
    7.0780    1.9580   10.7480 C   0  0  1  0  0  3  0  0  0  0  0  0
    6.7540    2.6320   11.8380 N   0  0  0  0  0  0  0  0  0  0  0  0
    7.9030    1.8760    8.9350 H   0  0  0  0  0  0  0  0  0  0  0  0
    6.2680    2.1110   12.5840 H   0  0  0  0  0  0  0  0  0  0  0  0
    9.0040    8.4080   13.2360 C   0  0  0  0  0  1  0  0  0  0  0  0
    7.6940    7.9960   12.8600 O   0  0  0  0  0  0  0  0  0  0  0  0
    8.9750   -0.2100   10.6580 O   0  0  0  0  0  0  0  0  0  0  0  0
    9.4840   -0.9800   10.3340 H   0  0  0  0  0  0  0  0  0  0  0  0
    3.4810   -1.5490   10.3360 C   0  0  0  0  0  2  0  0  0  0  0  0
    3.1810   -2.1580    8.9620 C   0  0  0  0  0  2  0  0  0  0  0  0
    3.4680   -1.1990    7.7930 C   0  0  0  0  0  3  0  0  0  0  0  0
    4.5770   -1.7750    6.9090 C   0  0  0  0  0  1  0  0  0  0  0  0
    2.2220   -0.9280    6.9470 C   0  0  0  0  0  1  0  0  0  0  0  0
  2 28  1  0  0  0  0
  2  1  2  0  0  0  0
  3  2  1  0  0  0  0
  3  4  1  0  0  0  0
  5  4  2  0  0  0  0
  6  5  1  0  0  0  0
  7  6  2  0  0  0  0
  7  8  1  0  0  0  0
  8  3  2  0  0  0  0
  9  8  1  0  0  0  0
  9 10  1  0  0  0  0
 10  1  1  0  0  0  0
 11 10  2  0  0  0  0
 12 27  1  0  0  0  0
 12 13  1  0  0  0  0
 14 13  2  0  0  0  0
 15 14  1  0  0  0  0
 16 17  1  0  0  0  0
 16 15  2  0  0  0  0
 17 12  2  0  0  0  0
 18 21  1  0  0  0  0
 18 16  1  0  0  0  0
 19 18  2  0  0  0  0
 20 18  2  0  0  0  0
 21 22  1  0  0  0  0
 22  1  1  6  0  0  0
 22 23  1  0  0  0  0
 23 15  1  0  0  0  0
 23 25  1  0  0  0  0
 24 21  1  0  0  0  0
 27 26  1  0  0  0  0
 29 28  1  0  0  0  0
 30  9  1  0  0  0  0
 31 30  1  0  0  0  0
 32 31  1  0  0  0  0
 33 32  1  0  0  0  0
 34 32  1  0  0  0  0
M  END
>  <minimizedAffinity>
-6.81139278

$$$$
