
 OpenBabel09122222393D

 34 37  0  0  1  0  0  0  0  0999 V2000
    5.9160    0.2790    9.3300 C   0  0  0  0  0  0  0  0  0  0  0  0
    4.6360   -0.0650    9.5670 C   0  0  0  0  0  0  0  0  0  0  0  0
    4.0820   -1.3450    9.0890 C   0  0  0  0  0  0  0  0  0  0  0  0
    2.7320   -1.7090    9.2130 C   0  0  0  0  0  3  0  0  0  0  0  0
    2.2940   -2.9480    8.7530 C   0  0  0  0  0  3  0  0  0  0  0  0
    3.2150   -3.7920    8.1710 C   0  0  0  0  0  3  0  0  0  0  0  0
    4.5120   -3.4660    8.0100 N   0  0  0  0  0  0  0  0  0  0  0  0
    4.9300   -2.2560    8.4480 C   0  0  0  0  0  0  0  0  0  0  0  0
    6.2810   -1.8990    8.2200 N   0  0  0  0  0  0  0  0  0  0  0  0
    6.8010   -0.6900    8.6140 C   0  0  0  0  0  0  0  0  0  0  0  0
    7.9750   -0.3560    8.4320 O   0  0  0  0  0  0  0  0  0  0  0  0
    7.8440    5.5350   12.6910 C   0  0  0  0  0  0  0  0  0  0  0  0
    7.1210    4.6160   13.4540 C   0  0  0  0  0  3  0  0  0  0  0  0
    6.6390    3.4300   12.8870 C   0  0  0  0  0  3  0  0  0  0  0  0
    6.8710    3.1400   11.5410 C   0  0  0  0  0  0  0  0  0  0  0  0
    7.5900    4.0630   10.8040 C   0  0  0  0  0  0  0  0  0  0  0  0
    8.0830    5.2570   11.3510 C   0  0  0  0  0  3  0  0  0  0  0  0
    7.8810    3.6980    9.1260 S   0  0  0  0  0  0  0  0  0  0  0  0
    9.3120    3.5360    8.9970 O   0  0  0  0  0  0  0  0  0  0  0  0
    7.1860    4.7180    8.3720 O   0  0  0  0  0  0  0  0  0  0  0  0
    7.1740    2.2950    8.8720 N   0  0  0  0  0  0  0  0  0  0  0  0
    6.5300    1.6040    9.7750 C   0  0  1  0  0  3  0  0  0  0  0  0
    6.3800    1.9830   11.0320 N   0  0  0  0  0  0  0  0  0  0  0  0
    7.2350    1.9170    7.9360 H   0  0  0  0  0  0  0  0  0  0  0  0
    5.8530    1.3490   11.6520 H   0  0  0  0  0  0  0  0  0  0  0  0
    7.4910    7.8370   13.1990 C   0  0  0  0  0  1  0  0  0  0  0  0
    8.2500    6.6440   13.3700 O   0  0  0  0  0  0  0  0  0  0  0  0
    3.8180    0.7830   10.3030 O   0  0  0  0  0  0  0  0  0  0  0  0
    3.0560    0.2800   10.6550 H   0  0  0  0  0  0  0  0  0  0  0  0
    7.1490   -2.8760    7.5490 C   0  0  0  0  0  2  0  0  0  0  0  0
    7.2350   -2.6130    6.0420 C   0  0  0  0  0  2  0  0  0  0  0  0
    8.6650   -2.7180    5.4840 C   0  0  0  0  0  3  0  0  0  0  0  0
    8.6170   -3.0230    3.9850 C   0  0  0  0  0  1  0  0  0  0  0  0
    9.4760   -1.4430    5.7250 C   0  0  0  0  0  1  0  0  0  0  0  0
  1  2  2  0  0  0  0
  2 28  1  0  0  0  0
  3  4  1  0  0  0  0
  3  2  1  0  0  0  0
  5  4  2  0  0  0  0
  6  5  1  0  0  0  0
  7  6  2  0  0  0  0
  7  8  1  0  0  0  0
  8  3  2  0  0  0  0
  9  8  1  0  0  0  0
  9 10  1  0  0  0  0
 10  1  1  0  0  0  0
 11 10  2  0  0  0  0
 12 27  1  0  0  0  0
 12 13  1  0  0  0  0
 14 13  2  0  0  0  0
 15 14  1  0  0  0  0
 16 17  1  0  0  0  0
 16 15  2  0  0  0  0
 17 12  2  0  0  0  0
 18 16  1  0  0  0  0
 19 18  2  0  0  0  0
 20 18  2  0  0  0  0
 21 18  1  0  0  0  0
 21 22  1  0  0  0  0
 22  1  1  6  0  0  0
 22 23  1  0  0  0  0
 23 15  1  0  0  0  0
 23 25  1  0  0  0  0
 24 21  1  0  0  0  0
 26 27  1  0  0  0  0
 28 29  1  0  0  0  0
 30  9  1  0  0  0  0
 31 30  1  0  0  0  0
 32 34  1  0  0  0  0
 32 31  1  0  0  0  0
 33 32  1  0  0  0  0
M  END
>  <minimizedAffinity>
-6.86836624

$$$$
