
 OpenBabel08272217053D

 27 30  0  0  1  0  0  0  0  0999 V2000
  117.7900   62.1760   12.2640 C   0  0  0  0  0  0  0  0  0  0  0  0
  117.1100   60.9620   12.6280 C   0  0  0  0  0  3  0  0  0  0  0  0
  115.7480   61.1170   12.7800 C   0  0  0  0  0  0  0  0  0  0  0  0
  115.3010   62.7480   12.5350 S   0  0  0  0  0  0  0  0  0  0  0  0
  116.9100   63.2460   12.1690 C   0  0  0  0  0  0  0  0  0  0  0  0
  119.7860   61.9880   10.7460 C   0  0  0  0  0  0  0  0  0  0  0  0
  121.1910   61.9610   10.6280 C   0  0  0  0  0  3  0  0  0  0  0  0
  122.0160   62.1870   11.7330 C   0  0  0  0  0  3  0  0  0  0  0  0
  121.4550   62.4450   12.9790 C   0  0  0  0  0  3  0  0  0  0  0  0
  120.0680   62.4630   13.1230 C   0  0  0  0  0  3  0  0  0  0  0  0
  119.2290   62.2380   12.0200 C   0  0  0  0  0  0  0  0  0  0  0  0
  117.4640   60.7990    5.5070 C   0  0  0  0  0  1  0  0  0  0  0  0
  118.4120   61.0200    6.6840 C   0  0  2  0  0  3  0  0  0  0  0  0
  118.0720   60.0660    7.8360 C   0  0  0  0  0  2  0  0  0  0  0  0
  118.9720   60.2990    9.0500 C   0  0  0  0  0  2  0  0  0  0  0  0
  118.9160   61.7640    9.5140 C   0  0  2  0  0  3  0  0  0  0  0  0
  119.2710   62.7180    8.3590 C   0  0  0  0  0  2  0  0  0  0  0  0
  118.3670   62.4810    7.1480 C   0  0  0  0  0  2  0  0  0  0  0  0
  114.7440   60.1020   13.1290 C   0  0  0  0  0  0  0  0  0  0  0  0
  114.4680   59.7670   14.4640 C   0  0  0  0  0  3  0  0  0  0  0  0
  113.4930   58.8160   14.7780 C   0  0  0  0  0  3  0  0  0  0  0  0
  112.7780   58.1880   13.7610 C   0  0  0  0  0  3  0  0  0  0  0  0
  113.0360   58.5100   12.4310 C   0  0  0  0  0  3  0  0  0  0  0  0
  114.0100   59.4620   12.1180 C   0  0  0  0  0  3  0  0  0  0  0  0
  117.2210   64.6650   11.7980 C   0  0  0  0  0  0  0  0  0  0  0  0
  117.6820   65.4110   12.7210 O   0  0  0  0  0  1  0  0  0  0  0  0
  117.0100   65.0400   10.6040 O   0  0  0  0  0  0  0  0  0  0  0  0
  1  2  1  0  0  0  0
  2  3  2  0  0  0  0
  3 19  1  0  0  0  0
  4  3  1  0  0  0  0
  5  1  2  0  0  0  0
  5  4  1  0  0  0  0
  6 11  1  0  0  0  0
  7  6  2  0  0  0  0
  7  8  1  0  0  0  0
  8  9  2  0  0  0  0
  9 10  1  0  0  0  0
 11  1  1  0  0  0  0
 11 10  2  0  0  0  0
 13 12  1  6  0  0  0
 13 18  1  0  0  0  0
 13 14  1  0  0  0  0
 14 15  1  0  0  0  0
 15 16  1  0  0  0  0
 16  6  1  1  0  0  0
 17 16  1  0  0  0  0
 18 17  1  0  0  0  0
 19 20  1  0  0  0  0
 20 21  2  0  0  0  0
 22 21  1  0  0  0  0
 23 22  2  0  0  0  0
 24 23  1  0  0  0  0
 24 19  2  0  0  0  0
 25  5  1  0  0  0  0
 25 26  1  0  0  0  0
 27 25  2  0  0  0  0
M  END
>  <minimizedAffinity>
-8.14918613

$$$$
