REMARK  Name = 
REMARK  5 active torsions:
REMARK  status: ('A' for Active; 'I' for Inactive)
REMARK    1  A    between atoms: C_1  and  C_2
REMARK    2  A    between atoms: C_5  and  C_8
REMARK    3  A    between atoms: C_13  and  C_14
REMARK    4  A    between atoms: C_16  and  C_22
REMARK    5  A    between atoms: C_18  and  C_19
REMARK                            x       y       z     vdW  Elec       q    Type
REMARK                         _______ _______ _______ _____ _____    ______ ____
ROOT
ATOM      1  C   UNL     1      -3.860   0.270  -2.211  0.00  0.00    -0.001 A 
ATOM      2  C   UNL     1      -3.379  -0.753  -3.100  0.00  0.00    +0.025 A 
ATOM      3  C   UNL     1      -3.071  -0.288  -4.361  0.00  0.00    +0.021 A 
ATOM      4  S   UNL     1      -3.418   1.381  -4.484  0.00  0.00    -0.086 S 
ATOM      5  C   UNL     1      -3.926   1.505  -2.842  0.00  0.00    +0.043 A 
ENDROOT
BRANCH   1  11
ATOM      6  C   UNL     1      -3.240  -0.105   0.197  0.00  0.00    -0.037 A 
ATOM      7  C   UNL     1      -3.667  -0.467   1.491  0.00  0.00    +0.004 A 
ATOM      8  C   UNL     1      -5.016  -0.695   1.773  0.00  0.00    +0.000 A 
ATOM      9  C   UNL     1      -5.968  -0.566   0.768  0.00  0.00    +0.001 A 
ATOM     10  C   UNL     1      -5.569  -0.222  -0.523  0.00  0.00    +0.009 A 
ATOM     11  C   UNL     1      -4.216   0.010  -0.818  0.00  0.00    -0.013 A 
BRANCH   6  16
ATOM     12  C   UNL     1       2.579   0.516   0.280  0.00  0.00    +0.007 C 
ATOM     13  C   UNL     1       1.120   0.242   0.639  0.00  0.00    -0.014 C 
ATOM     14  C   UNL     1       0.544  -0.865  -0.253  0.00  0.00    +0.004 C 
ATOM     15  C   UNL     1      -0.932  -1.126   0.048  0.00  0.00    +0.008 C 
ATOM     16  C   UNL     1      -1.763   0.163  -0.069  0.00  0.00    +0.020 C 
ATOM     17  C   UNL     1      -1.190   1.267   0.838  0.00  0.00    +0.008 C 
ATOM     18  C   UNL     1       0.286   1.525   0.532  0.00  0.00    +0.004 C 
ENDBRANCH   6  16
ENDBRANCH   1  11
BRANCH   3  19
ATOM     19  C   UNL     1      -2.545  -1.038  -5.511  0.00  0.00    -0.011 A 
ATOM     20  C   UNL     1      -1.543  -0.509  -6.339  0.00  0.00    +0.009 A 
ATOM     21  C   UNL     1      -1.038  -1.246  -7.414  0.00  0.00    +0.001 A 
ATOM     22  C   UNL     1      -1.527  -2.524  -7.675  0.00  0.00    +0.000 A 
ATOM     23  C   UNL     1      -2.519  -3.066  -6.862  0.00  0.00    +0.001 A 
ATOM     24  C   UNL     1      -3.022  -2.329  -5.786  0.00  0.00    +0.009 A 
ENDBRANCH   3  19
BRANCH   5  25
ATOM     25  C   UNL     1      -4.356   2.817  -2.257  0.00  0.00    +0.079 C 
ATOM     26  O   UNL     1      -4.341   3.825  -3.035  0.00  0.00    -0.544 OA
ATOM     27  O   UNL     1      -4.704   2.852  -1.037  0.00  0.00    -0.544 OA
ENDBRANCH   5  25
TORSDOF 4
