
 OpenBabel08272217053D

 27 30  0  0  1  0  0  0  0  0999 V2000
  107.9780   52.6760    4.3600 C   0  0  0  0  0  0  0  0  0  0  0  0
  107.7210   51.6280    5.3100 C   0  0  0  0  0  3  0  0  0  0  0  0
  107.6090   52.0770    6.6090 C   0  0  0  0  0  0  0  0  0  0  0  0
  107.8720   53.7640    6.6830 S   0  0  0  0  0  0  0  0  0  0  0  0
  108.0790   53.9140    4.9790 C   0  0  0  0  0  0  0  0  0  0  0  0
  106.9910   52.5030    2.0530 C   0  0  0  0  0  0  0  0  0  0  0  0
  107.1830   52.1460    0.7030 C   0  0  0  0  0  3  0  0  0  0  0  0
  108.4340   51.7460    0.2280 C   0  0  0  0  0  3  0  0  0  0  0  0
  109.5220   51.6950    1.0930 C   0  0  0  0  0  3  0  0  0  0  0  0
  109.3550   52.0310    2.4360 C   0  0  0  0  0  3  0  0  0  0  0  0
  108.1010   52.4340    2.9240 C   0  0  0  0  0  0  0  0  0  0  0  0
  101.5000   54.4120    2.7310 C   0  0  0  0  0  1  0  0  0  0  0  0
  102.8570   53.9930    2.1680 C   0  0  2  0  0  3  0  0  0  0  0  0
  103.1260   52.5110    2.4580 C   0  0  0  0  0  2  0  0  0  0  0  0
  104.5010   52.0750    1.9520 C   0  0  0  0  0  2  0  0  0  0  0  0
  105.6180   52.9610    2.5310 C   0  0  2  0  0  3  0  0  0  0  0  0
  105.3500   54.4460    2.2260 C   0  0  0  0  0  2  0  0  0  0  0  0
  103.9740   54.8770    2.7360 C   0  0  0  0  0  2  0  0  0  0  0  0
  107.3370   51.3000    7.8270 C   0  0  0  0  0  0  0  0  0  0  0  0
  107.1980   49.9040    7.7940 C   0  0  0  0  0  3  0  0  0  0  0  0
  106.9630   49.1790    8.9660 C   0  0  0  0  0  3  0  0  0  0  0  0
  106.8640   49.8400   10.1880 C   0  0  0  0  0  3  0  0  0  0  0  0
  107.0020   51.2240   10.2400 C   0  0  0  0  0  3  0  0  0  0  0  0
  107.2390   51.9490    9.0680 C   0  0  0  0  0  3  0  0  0  0  0  0
  108.3220   55.2480    4.3390 C   0  0  0  0  0  0  0  0  0  0  0  0
  109.4720   55.4380    3.8260 O   0  0  0  0  0  0  0  0  0  0  0  0
  107.3840   56.1030    4.3440 O   0  0  0  0  0  1  0  0  0  0  0  0
  1  5  2  0  0  0  0
  1  2  1  0  0  0  0
  2  3  2  0  0  0  0
  3  4  1  0  0  0  0
  3 19  1  0  0  0  0
  5  4  1  0  0  0  0
  6 11  1  0  0  0  0
  7  6  2  0  0  0  0
  8  7  1  0  0  0  0
  8  9  2  0  0  0  0
  9 10  1  0  0  0  0
 10 11  2  0  0  0  0
 11  1  1  0  0  0  0
 13 14  1  0  0  0  0
 13 12  1  1  0  0  0
 13 18  1  0  0  0  0
 15 14  1  0  0  0  0
 15 16  1  0  0  0  0
 16  6  1  6  0  0  0
 17 16  1  0  0  0  0
 17 18  1  0  0  0  0
 19 24  1  0  0  0  0
 20 19  2  0  0  0  0
 20 21  1  0  0  0  0
 21 22  2  0  0  0  0
 22 23  1  0  0  0  0
 24 23  2  0  0  0  0
 25 27  1  0  0  0  0
 25  5  1  0  0  0  0
 26 25  2  0  0  0  0
M  END
>  <minimizedAffinity>
-8.79406166

$$$$

 OpenBabel08272217053D

 27 30  0  0  1  0  0  0  0  0999 V2000
  105.9370   51.7960    4.5140 C   0  0  0  0  0  0  0  0  0  0  0  0
  105.8670   51.8230    5.9510 C   0  0  0  0  0  3  0  0  0  0  0  0
  106.6970   50.9060    6.5610 C   0  0  0  0  0  0  0  0  0  0  0  0
  107.5200   49.9730    5.3890 S   0  0  0  0  0  0  0  0  0  0  0  0
  106.8200   50.8240    4.0640 C   0  0  0  0  0  0  0  0  0  0  0  0
  105.5350   54.0550    3.4850 C   0  0  0  0  0  0  0  0  0  0  0  0
  104.6740   54.8830    2.7360 C   0  0  0  0  0  3  0  0  0  0  0  0
  103.4960   54.3850    2.1740 C   0  0  0  0  0  3  0  0  0  0  0  0
  103.1540   53.0490    2.3460 C   0  0  0  0  0  3  0  0  0  0  0  0
  103.9830   52.2130    3.0940 C   0  0  0  0  0  3  0  0  0  0  0  0
  105.1690   52.7020    3.6640 C   0  0  0  0  0  0  0  0  0  0  0  0
  110.4930   56.9100    4.7180 C   0  0  0  0  0  1  0  0  0  0  0  0
  109.2240   56.3770    4.0560 C   0  0  2  0  0  3  0  0  0  0  0  0
  107.9920   56.7070    4.9090 C   0  0  0  0  0  2  0  0  0  0  0  0
  106.7110   56.1400    4.2980 C   0  0  0  0  0  2  0  0  0  0  0  0
  106.8260   54.6250    4.0620 C   0  0  2  0  0  3  0  0  0  0  0  0
  108.0550   54.2990    3.1940 C   0  0  0  0  0  2  0  0  0  0  0  0
  109.3350   54.8670    3.8100 C   0  0  0  0  0  2  0  0  0  0  0  0
  106.8960   50.6640    7.9970 C   0  0  0  0  0  0  0  0  0  0  0  0
  106.9510   51.7190    8.9210 C   0  0  0  0  0  3  0  0  0  0  0  0
  107.1170   51.4690   10.2860 C   0  0  0  0  0  3  0  0  0  0  0  0
  107.2280   50.1590   10.7470 C   0  0  0  0  0  3  0  0  0  0  0  0
  107.1730   49.1000    9.8450 C   0  0  0  0  0  3  0  0  0  0  0  0
  107.0050   49.3510    8.4800 C   0  0  0  0  0  3  0  0  0  0  0  0
  107.1840   50.4940    2.6480 C   0  0  0  0  0  0  0  0  0  0  0  0
  106.4560   49.6340    2.0530 O   0  0  0  0  0  0  0  0  0  0  0  0
  108.1830   51.0780    2.1260 O   0  0  0  0  0  1  0  0  0  0  0  0
  1  2  1  0  0  0  0
  2  3  2  0  0  0  0
  3 19  1  0  0  0  0
  4  3  1  0  0  0  0
  5  1  2  0  0  0  0
  5  4  1  0  0  0  0
  6 11  1  0  0  0  0
  7  6  2  0  0  0  0
  8  9  2  0  0  0  0
  8  7  1  0  0  0  0
  9 10  1  0  0  0  0
 10 11  2  0  0  0  0
 11  1  1  0  0  0  0
 13 12  1  1  0  0  0
 13 14  1  0  0  0  0
 15 14  1  0  0  0  0
 16  6  1  6  0  0  0
 16 15  1  0  0  0  0
 17 18  1  0  0  0  0
 17 16  1  0  0  0  0
 18 13  1  0  0  0  0
 19 24  2  0  0  0  0
 19 20  1  0  0  0  0
 20 21  2  0  0  0  0
 21 22  1  0  0  0  0
 23 22  2  0  0  0  0
 24 23  1  0  0  0  0
 25  5  1  0  0  0  0
 26 25  2  0  0  0  0
 27 25  1  0  0  0  0
M  END
>  <minimizedAffinity>
-8.47916031

$$$$

 OpenBabel08272217053D

 27 30  0  0  1  0  0  0  0  0999 V2000
  107.2380   53.2440    4.8320 C   0  0  0  0  0  0  0  0  0  0  0  0
  107.2400   54.4600    5.5990 C   0  0  0  0  0  3  0  0  0  0  0  0
  106.8970   54.2790    6.9220 C   0  0  0  0  0  0  0  0  0  0  0  0
  106.5180   52.6400    7.2220 S   0  0  0  0  0  0  0  0  0  0  0  0
  106.8640   52.1530    5.6060 C   0  0  0  0  0  0  0  0  0  0  0  0
  106.6280   53.2070    2.3930 C   0  0  0  0  0  0  0  0  0  0  0  0
  107.0630   53.0440    1.0620 C   0  0  0  0  0  3  0  0  0  0  0  0
  108.4170   52.8870    0.7550 C   0  0  0  0  0  3  0  0  0  0  0  0
  109.3650   52.8900    1.7720 C   0  0  0  0  0  3  0  0  0  0  0  0
  108.9580   53.0360    3.0970 C   0  0  0  0  0  3  0  0  0  0  0  0
  107.6000   53.1950    3.4170 C   0  0  0  0  0  0  0  0  0  0  0  0
  100.8430   54.0960    2.3550 C   0  0  0  0  0  1  0  0  0  0  0  0
  102.3130   53.9370    1.9720 C   0  0  2  0  0  3  0  0  0  0  0  0
  102.8040   52.5200    2.2960 C   0  0  0  0  0  2  0  0  0  0  0  0
  104.2880   52.3460    1.9710 C   0  0  0  0  0  2  0  0  0  0  0  0
  105.1450   53.4030    2.6890 C   0  0  2  0  0  3  0  0  0  0  0  0
  104.6580   54.8230    2.3500 C   0  0  0  0  0  2  0  0  0  0  0  0
  103.1730   54.9930    2.6780 C   0  0  0  0  0  2  0  0  0  0  0  0
  106.8100   55.2840    7.9920 C   0  0  0  0  0  0  0  0  0  0  0  0
  107.8190   56.2400    8.1870 C   0  0  0  0  0  3  0  0  0  0  0  0
  107.7080   57.2030    9.1950 C   0  0  0  0  0  3  0  0  0  0  0  0
  106.5860   57.2240   10.0200 C   0  0  0  0  0  3  0  0  0  0  0  0
  105.5740   56.2850    9.8380 C   0  0  0  0  0  3  0  0  0  0  0  0
  105.6850   55.3230    8.8290 C   0  0  0  0  0  3  0  0  0  0  0  0
  106.7570   50.7180    5.1850 C   0  0  0  0  0  0  0  0  0  0  0  0
  107.7170   49.9500    5.5160 O   0  0  0  0  0  1  0  0  0  0  0  0
  105.7330   50.3530    4.5300 O   0  0  0  0  0  0  0  0  0  0  0  0
  1  2  1  0  0  0  0
  1  5  2  0  0  0  0
  2  3  2  0  0  0  0
  3  4  1  0  0  0  0
  3 19  1  0  0  0  0
  5  4  1  0  0  0  0
  6 11  1  0  0  0  0
  7  6  2  0  0  0  0
  8  7  1  0  0  0  0
  8  9  2  0  0  0  0
  9 10  1  0  0  0  0
 10 11  2  0  0  0  0
 11  1  1  0  0  0  0
 13 14  1  0  0  0  0
 13 12  1  1  0  0  0
 13 18  1  0  0  0  0
 15 14  1  0  0  0  0
 15 16  1  0  0  0  0
 16  6  1  6  0  0  0
 17 18  1  0  0  0  0
 17 16  1  0  0  0  0
 19 20  2  0  0  0  0
 19 24  1  0  0  0  0
 20 21  1  0  0  0  0
 21 22  2  0  0  0  0
 23 22  1  0  0  0  0
 24 23  2  0  0  0  0
 25 26  1  0  0  0  0
 25  5  1  0  0  0  0
 27 25  2  0  0  0  0
M  END
>  <minimizedAffinity>
-8.42298412

$$$$

 OpenBabel08272217053D

 27 30  0  0  1  0  0  0  0  0999 V2000
  111.6240   69.1360   -0.3420 C   0  0  0  0  0  0  0  0  0  0  0  0
  110.5450   68.3950   -0.9390 C   0  0  0  0  0  3  0  0  0  0  0  0
  110.9030   67.1260   -1.3420 C   0  0  0  0  0  0  0  0  0  0  0  0
  112.5650   66.8520   -1.0480 S   0  0  0  0  0  0  0  0  0  0  0  0
  112.8020   68.4010   -0.3300 C   0  0  0  0  0  0  0  0  0  0  0  0
  110.9750   70.7330    1.4880 C   0  0  0  0  0  0  0  0  0  0  0  0
  110.7480   72.0710    1.8720 C   0  0  0  0  0  3  0  0  0  0  0  0
  111.0080   73.1310    1.0000 C   0  0  0  0  0  3  0  0  0  0  0  0
  111.5010   72.8770   -0.2750 C   0  0  0  0  0  3  0  0  0  0  0  0
  111.7210   71.5620   -0.6830 C   0  0  0  0  0  3  0  0  0  0  0  0
  111.4640   70.4890    0.1850 C   0  0  0  0  0  0  0  0  0  0  0  0
  110.1680   67.2190    6.0980 C   0  0  0  0  0  1  0  0  0  0  0  0
  110.4770   68.4000    5.1800 C   0  0  2  0  0  3  0  0  0  0  0  0
  109.2350   68.7940    4.3710 C   0  0  0  0  0  2  0  0  0  0  0  0
  109.5280   69.9420    3.4040 C   0  0  0  0  0  2  0  0  0  0  0  0
  110.7060   69.6030    2.4750 C   0  0  2  0  0  3  0  0  0  0  0  0
  111.9540   69.2210    3.2910 C   0  0  0  0  0  2  0  0  0  0  0  0
  111.6560   68.0720    4.2550 C   0  0  0  0  0  2  0  0  0  0  0  0
  110.0660   66.0940   -1.9700 C   0  0  0  0  0  0  0  0  0  0  0  0
  108.6820   66.0330   -1.7480 C   0  0  0  0  0  3  0  0  0  0  0  0
  107.8980   65.0580   -2.3720 C   0  0  0  0  0  3  0  0  0  0  0  0
  108.4870   64.1320   -3.2300 C   0  0  0  0  0  3  0  0  0  0  0  0
  109.8590   64.1800   -3.4650 C   0  0  0  0  0  3  0  0  0  0  0  0
  110.6420   65.1560   -2.8410 C   0  0  0  0  0  3  0  0  0  0  0  0
  114.1370   68.8090    0.2180 C   0  0  0  0  0  0  0  0  0  0  0  0
  114.7700   69.7080   -0.4230 O   0  0  0  0  0  0  0  0  0  0  0  0
  114.5580   68.2430    1.2730 O   0  0  0  0  0  1  0  0  0  0  0  0
  1  5  2  0  0  0  0
  1 11  1  0  0  0  0
  2  1  1  0  0  0  0
  3  4  1  0  0  0  0
  3  2  2  0  0  0  0
  4  5  1  0  0  0  0
  5 25  1  0  0  0  0
  6  7  1  0  0  0  0
  8  7  2  0  0  0  0
  9  8  1  0  0  0  0
 10  9  2  0  0  0  0
 10 11  1  0  0  0  0
 11  6  2  0  0  0  0
 13 12  1  6  0  0  0
 14 13  1  0  0  0  0
 15 14  1  0  0  0  0
 16  6  1  1  0  0  0
 16 17  1  0  0  0  0
 16 15  1  0  0  0  0
 17 18  1  0  0  0  0
 18 13  1  0  0  0  0
 19 20  1  0  0  0  0
 19  3  1  0  0  0  0
 21 20  2  0  0  0  0
 22 21  1  0  0  0  0
 23 22  2  0  0  0  0
 23 24  1  0  0  0  0
 24 19  2  0  0  0  0
 25 27  1  0  0  0  0
 26 25  2  0  0  0  0
M  END
>  <minimizedAffinity>
-8.39850426

$$$$

 OpenBabel08272217053D

 27 30  0  0  1  0  0  0  0  0999 V2000
  107.8570   53.5540    3.9200 C   0  0  0  0  0  0  0  0  0  0  0  0
  107.5560   54.9560    4.0260 C   0  0  0  0  0  3  0  0  0  0  0  0
  107.6090   55.4360    5.3180 C   0  0  0  0  0  0  0  0  0  0  0  0
  107.9690   54.1710    6.4100 S   0  0  0  0  0  0  0  0  0  0  0  0
  108.1130   52.9910    5.1630 C   0  0  0  0  0  0  0  0  0  0  0  0
  106.7120   52.5030    1.9430 C   0  0  0  0  0  0  0  0  0  0  0  0
  106.8350   51.7200    0.7770 C   0  0  0  0  0  3  0  0  0  0  0  0
  108.0840   51.2980    0.3150 C   0  0  0  0  0  3  0  0  0  0  0  0
  109.2370   51.6490    1.0070 C   0  0  0  0  0  3  0  0  0  0  0  0
  109.1400   52.4120    2.1700 C   0  0  0  0  0  3  0  0  0  0  0  0
  107.8900   52.8430    2.6440 C   0  0  0  0  0  0  0  0  0  0  0  0
  101.1480   54.2110    2.5620 C   0  0  0  0  0  1  0  0  0  0  0  0
  102.5010   53.7660    2.0120 C   0  0  2  0  0  3  0  0  0  0  0  0
  102.8770   52.3830    2.5570 C   0  0  0  0  0  2  0  0  0  0  0  0
  104.2520   51.9320    2.0650 C   0  0  0  0  0  2  0  0  0  0  0  0
  105.3350   52.9700    2.4040 C   0  0  2  0  0  3  0  0  0  0  0  0
  104.9620   54.3530    1.8420 C   0  0  0  0  0  2  0  0  0  0  0  0
  103.5860   54.8000    2.3390 C   0  0  0  0  0  2  0  0  0  0  0  0
  107.3770   56.8060    5.7980 C   0  0  0  0  0  0  0  0  0  0  0  0
  106.0820   57.3240    5.9470 C   0  0  0  0  0  3  0  0  0  0  0  0
  105.8790   58.6220    6.4270 C   0  0  0  0  0  3  0  0  0  0  0  0
  106.9700   59.4190    6.7650 C   0  0  0  0  0  3  0  0  0  0  0  0
  108.2630   58.9200    6.6260 C   0  0  0  0  0  3  0  0  0  0  0  0
  108.4640   57.6220    6.1480 C   0  0  0  0  0  3  0  0  0  0  0  0
  108.4800   51.5710    5.4730 C   0  0  0  0  0  0  0  0  0  0  0  0
  109.7070   51.3360    5.7230 O   0  0  0  0  0  1  0  0  0  0  0  0
  107.5640   50.6930    5.4680 O   0  0  0  0  0  0  0  0  0  0  0  0
  1  2  1  0  0  0  0
  1  5  2  0  0  0  0
  2  3  2  0  0  0  0
  3 19  1  0  0  0  0
  3  4  1  0  0  0  0
  5 25  1  0  0  0  0
  5  4  1  0  0  0  0
  6 11  1  0  0  0  0
  7  6  2  0  0  0  0
  8  7  1  0  0  0  0
  8  9  2  0  0  0  0
  9 10  1  0  0  0  0
 10 11  2  0  0  0  0
 11  1  1  0  0  0  0
 13 18  1  0  0  0  0
 13 14  1  0  0  0  0
 13 12  1  1  0  0  0
 15 16  1  0  0  0  0
 15 14  1  0  0  0  0
 16  6  1  6  0  0  0
 17 18  1  0  0  0  0
 17 16  1  0  0  0  0
 19 20  2  0  0  0  0
 19 24  1  0  0  0  0
 20 21  1  0  0  0  0
 21 22  2  0  0  0  0
 23 22  1  0  0  0  0
 24 23  2  0  0  0  0
 25 26  1  0  0  0  0
 27 25  2  0  0  0  0
M  END
>  <minimizedAffinity>
-8.32047844

$$$$

 OpenBabel08272217053D

 27 30  0  0  1  0  0  0  0  0999 V2000
  105.0060   54.0470    5.4240 C   0  0  0  0  0  0  0  0  0  0  0  0
  105.1380   52.8040    6.1360 C   0  0  0  0  0  3  0  0  0  0  0  0
  106.1230   52.8220    7.1000 C   0  0  0  0  0  0  0  0  0  0  0  0
  106.9270   54.3300    7.1040 S   0  0  0  0  0  0  0  0  0  0  0  0
  105.9290   54.9860    5.8620 C   0  0  0  0  0  0  0  0  0  0  0  0
  104.2190   53.8690    3.0420 C   0  0  0  0  0  0  0  0  0  0  0  0
  103.2460   54.2190    2.0840 C   0  0  0  0  0  3  0  0  0  0  0  0
  102.0950   54.9240    2.4420 C   0  0  0  0  0  3  0  0  0  0  0  0
  101.8900   55.2960    3.7660 C   0  0  0  0  0  3  0  0  0  0  0  0
  102.8440   54.9730    4.7300 C   0  0  0  0  0  3  0  0  0  0  0  0
  104.0050   54.2640    4.3820 C   0  0  0  0  0  0  0  0  0  0  0  0
  108.7970   51.3710    0.3860 C   0  0  0  0  0  1  0  0  0  0  0  0
  107.5460   52.1840    0.7160 C   0  0  2  0  0  3  0  0  0  0  0  0
  107.8460   53.2130    1.8130 C   0  0  0  0  0  2  0  0  0  0  0  0
  106.5990   54.0080    2.2020 C   0  0  0  0  0  2  0  0  0  0  0  0
  105.4500   53.0750    2.6210 C   0  0  2  0  0  3  0  0  0  0  0  0
  105.1430   52.0530    1.5120 C   0  0  0  0  0  2  0  0  0  0  0  0
  106.3930   51.2600    1.1280 C   0  0  0  0  0  2  0  0  0  0  0  0
  106.5250   51.7480    8.0200 C   0  0  0  0  0  0  0  0  0  0  0  0
  106.8000   52.0020    9.3720 C   0  0  0  0  0  3  0  0  0  0  0  0
  107.1570   50.9640   10.2380 C   0  0  0  0  0  3  0  0  0  0  0  0
  107.2430   49.6570    9.7640 C   0  0  0  0  0  3  0  0  0  0  0  0
  106.9700   49.3870    8.4260 C   0  0  0  0  0  3  0  0  0  0  0  0
  106.6110   50.4240    7.5610 C   0  0  0  0  0  3  0  0  0  0  0  0
  106.1030   56.3980    5.3890 C   0  0  0  0  0  0  0  0  0  0  0  0
  105.4170   57.2920    5.9840 O   0  0  0  0  0  1  0  0  0  0  0  0
  106.9080   56.6230    4.4340 O   0  0  0  0  0  0  0  0  0  0  0  0
  1  5  2  0  0  0  0
  1  2  1  0  0  0  0
  2  3  2  0  0  0  0
  3  4  1  0  0  0  0
  3 19  1  0  0  0  0
  5  4  1  0  0  0  0
  6 11  1  0  0  0  0
  7  8  1  0  0  0  0
  7  6  2  0  0  0  0
  8  9  2  0  0  0  0
  9 10  1  0  0  0  0
 11 10  2  0  0  0  0
 11  1  1  0  0  0  0
 13 12  1  1  0  0  0
 13 18  1  0  0  0  0
 13 14  1  0  0  0  0
 14 15  1  0  0  0  0
 15 16  1  0  0  0  0
 16  6  1  6  0  0  0
 17 16  1  0  0  0  0
 18 17  1  0  0  0  0
 19 20  1  0  0  0  0
 20 21  2  0  0  0  0
 22 21  1  0  0  0  0
 23 22  2  0  0  0  0
 24 19  2  0  0  0  0
 24 23  1  0  0  0  0
 25  5  1  0  0  0  0
 25 26  1  0  0  0  0
 27 25  2  0  0  0  0
M  END
>  <minimizedAffinity>
-8.30644321

$$$$

 OpenBabel08272217053D

 27 30  0  0  1  0  0  0  0  0999 V2000
  106.2690   54.1110    2.9330 C   0  0  0  0  0  0  0  0  0  0  0  0
  106.7260   55.1970    3.7580 C   0  0  0  0  0  3  0  0  0  0  0  0
  105.7030   55.9270    4.3260 C   0  0  0  0  0  0  0  0  0  0  0  0
  104.1860   55.3290    3.8140 S   0  0  0  0  0  0  0  0  0  0  0  0
  104.8830   54.0590    2.8790 C   0  0  0  0  0  0  0  0  0  0  0  0
  107.8290   52.1380    2.9470 C   0  0  0  0  0  0  0  0  0  0  0  0
  108.7740   51.3660    2.2400 C   0  0  0  0  0  3  0  0  0  0  0  0
  109.0560   51.6170    0.8950 C   0  0  0  0  0  3  0  0  0  0  0  0
  108.3990   52.6440    0.2260 C   0  0  0  0  0  3  0  0  0  0  0  0
  107.4700   53.4300    0.9070 C   0  0  0  0  0  3  0  0  0  0  0  0
  107.1790   53.1870    2.2590 C   0  0  0  0  0  0  0  0  0  0  0  0
  106.9400   49.8050    8.2400 C   0  0  0  0  0  1  0  0  0  0  0  0
  107.2380   50.0310    6.7590 C   0  0  2  0  0  3  0  0  0  0  0  0
  108.4630   50.9380    6.5880 C   0  0  0  0  0  2  0  0  0  0  0  0
  108.7550   51.2250    5.1150 C   0  0  0  0  0  2  0  0  0  0  0  0
  107.5260   51.8200    4.4060 C   0  0  2  0  0  3  0  0  0  0  0  0
  106.3020   50.9000    4.5690 C   0  0  0  0  0  2  0  0  0  0  0  0
  106.0140   50.6170    6.0440 C   0  0  0  0  0  2  0  0  0  0  0  0
  105.7950   57.0850    5.2270 C   0  0  0  0  0  0  0  0  0  0  0  0
  104.6510   57.6720    5.7900 C   0  0  0  0  0  3  0  0  0  0  0  0
  104.7590   58.7580    6.6640 C   0  0  0  0  0  3  0  0  0  0  0  0
  106.0120   59.2710    6.9890 C   0  0  0  0  0  3  0  0  0  0  0  0
  107.1580   58.6990    6.4420 C   0  0  0  0  0  3  0  0  0  0  0  0
  107.0500   57.6120    5.5700 C   0  0  0  0  0  3  0  0  0  0  0  0
  104.0250   53.0710    2.1470 C   0  0  0  0  0  0  0  0  0  0  0  0
  104.5910   52.0000    1.7530 O   0  0  0  0  0  0  0  0  0  0  0  0
  102.8020   53.3510    1.9600 O   0  0  0  0  0  1  0  0  0  0  0  0
  1  2  1  0  0  0  0
  2  3  2  0  0  0  0
  3 19  1  0  0  0  0
  4  3  1  0  0  0  0
  5  1  2  0  0  0  0
  5  4  1  0  0  0  0
  7  6  2  0  0  0  0
  8  7  1  0  0  0  0
  9  8  2  0  0  0  0
  9 10  1  0  0  0  0
 10 11  2  0  0  0  0
 11  1  1  0  0  0  0
 11  6  1  0  0  0  0
 13 12  1  1  0  0  0
 14 13  1  0  0  0  0
 15 14  1  0  0  0  0
 16  6  1  6  0  0  0
 16 17  1  0  0  0  0
 16 15  1  0  0  0  0
 17 18  1  0  0  0  0
 18 13  1  0  0  0  0
 19 24  2  0  0  0  0
 19 20  1  0  0  0  0
 20 21  2  0  0  0  0
 21 22  1  0  0  0  0
 23 22  2  0  0  0  0
 24 23  1  0  0  0  0
 25  5  1  0  0  0  0
 26 25  2  0  0  0  0
 27 25  1  0  0  0  0
M  END
>  <minimizedAffinity>
-8.26592159

$$$$

 OpenBabel08272217053D

 27 30  0  0  1  0  0  0  0  0999 V2000
  117.7900   62.1760   12.2640 C   0  0  0  0  0  0  0  0  0  0  0  0
  117.1100   60.9620   12.6280 C   0  0  0  0  0  3  0  0  0  0  0  0
  115.7480   61.1170   12.7800 C   0  0  0  0  0  0  0  0  0  0  0  0
  115.3010   62.7480   12.5350 S   0  0  0  0  0  0  0  0  0  0  0  0
  116.9100   63.2460   12.1690 C   0  0  0  0  0  0  0  0  0  0  0  0
  119.7860   61.9880   10.7460 C   0  0  0  0  0  0  0  0  0  0  0  0
  121.1910   61.9610   10.6280 C   0  0  0  0  0  3  0  0  0  0  0  0
  122.0160   62.1870   11.7330 C   0  0  0  0  0  3  0  0  0  0  0  0
  121.4550   62.4450   12.9790 C   0  0  0  0  0  3  0  0  0  0  0  0
  120.0680   62.4630   13.1230 C   0  0  0  0  0  3  0  0  0  0  0  0
  119.2290   62.2380   12.0200 C   0  0  0  0  0  0  0  0  0  0  0  0
  117.4640   60.7990    5.5070 C   0  0  0  0  0  1  0  0  0  0  0  0
  118.4120   61.0200    6.6840 C   0  0  2  0  0  3  0  0  0  0  0  0
  118.0720   60.0660    7.8360 C   0  0  0  0  0  2  0  0  0  0  0  0
  118.9720   60.2990    9.0500 C   0  0  0  0  0  2  0  0  0  0  0  0
  118.9160   61.7640    9.5140 C   0  0  2  0  0  3  0  0  0  0  0  0
  119.2710   62.7180    8.3590 C   0  0  0  0  0  2  0  0  0  0  0  0
  118.3670   62.4810    7.1480 C   0  0  0  0  0  2  0  0  0  0  0  0
  114.7440   60.1020   13.1290 C   0  0  0  0  0  0  0  0  0  0  0  0
  114.4680   59.7670   14.4640 C   0  0  0  0  0  3  0  0  0  0  0  0
  113.4930   58.8160   14.7780 C   0  0  0  0  0  3  0  0  0  0  0  0
  112.7780   58.1880   13.7610 C   0  0  0  0  0  3  0  0  0  0  0  0
  113.0360   58.5100   12.4310 C   0  0  0  0  0  3  0  0  0  0  0  0
  114.0100   59.4620   12.1180 C   0  0  0  0  0  3  0  0  0  0  0  0
  117.2210   64.6650   11.7980 C   0  0  0  0  0  0  0  0  0  0  0  0
  117.6820   65.4110   12.7210 O   0  0  0  0  0  1  0  0  0  0  0  0
  117.0100   65.0400   10.6040 O   0  0  0  0  0  0  0  0  0  0  0  0
  1  2  1  0  0  0  0
  2  3  2  0  0  0  0
  3 19  1  0  0  0  0
  4  3  1  0  0  0  0
  5  1  2  0  0  0  0
  5  4  1  0  0  0  0
  6 11  1  0  0  0  0
  7  6  2  0  0  0  0
  7  8  1  0  0  0  0
  8  9  2  0  0  0  0
  9 10  1  0  0  0  0
 11  1  1  0  0  0  0
 11 10  2  0  0  0  0
 13 12  1  6  0  0  0
 13 18  1  0  0  0  0
 13 14  1  0  0  0  0
 14 15  1  0  0  0  0
 15 16  1  0  0  0  0
 16  6  1  1  0  0  0
 17 16  1  0  0  0  0
 18 17  1  0  0  0  0
 19 20  1  0  0  0  0
 20 21  2  0  0  0  0
 22 21  1  0  0  0  0
 23 22  2  0  0  0  0
 24 23  1  0  0  0  0
 24 19  2  0  0  0  0
 25  5  1  0  0  0  0
 25 26  1  0  0  0  0
 27 25  2  0  0  0  0
M  END
>  <minimizedAffinity>
-8.14918613

$$$$

 OpenBabel08272217053D

 27 30  0  0  1  0  0  0  0  0999 V2000
  105.4510   55.6030    4.3910 C   0  0  0  0  0  0  0  0  0  0  0  0
  106.4200   54.7210    3.7990 C   0  0  0  0  0  3  0  0  0  0  0  0
  105.9440   54.0360    2.7000 C   0  0  0  0  0  0  0  0  0  0  0  0
  104.3030   54.4230    2.4200 S   0  0  0  0  0  0  0  0  0  0  0  0
  104.2340   55.5460    3.7250 C   0  0  0  0  0  0  0  0  0  0  0  0
  105.9990   55.9110    6.8260 C   0  0  0  0  0  0  0  0  0  0  0  0
  106.1650   56.8070    7.9020 C   0  0  0  0  0  3  0  0  0  0  0  0
  106.0950   58.1890    7.7130 C   0  0  0  0  0  3  0  0  0  0  0  0
  105.8590   58.7070    6.4450 C   0  0  0  0  0  3  0  0  0  0  0  0
  105.6780   57.8410    5.3670 C   0  0  0  0  0  3  0  0  0  0  0  0
  105.7460   56.4500    5.5450 C   0  0  0  0  0  0  0  0  0  0  0  0
  106.3000   50.4390    8.8800 C   0  0  0  0  0  1  0  0  0  0  0  0
  106.2080   51.9570    8.7350 C   0  0  2  0  0  3  0  0  0  0  0  0
  104.9420   52.3490    7.9620 C   0  0  0  0  0  2  0  0  0  0  0  0
  104.8490   53.8610    7.7560 C   0  0  0  0  0  2  0  0  0  0  0  0
  106.1080   54.4090    7.0630 C   0  0  2  0  0  3  0  0  0  0  0  0
  107.3750   54.0250    7.8490 C   0  0  0  0  0  2  0  0  0  0  0  0
  107.4640   52.5120    8.0510 C   0  0  0  0  0  2  0  0  0  0  0  0
  106.6510   53.0720    1.8450 C   0  0  0  0  0  0  0  0  0  0  0  0
  107.9440   53.3260    1.3620 C   0  0  0  0  0  3  0  0  0  0  0  0
  108.6100   52.3870    0.5700 C   0  0  0  0  0  3  0  0  0  0  0  0
  107.9930   51.1800    0.2500 C   0  0  0  0  0  3  0  0  0  0  0  0
  106.7110   50.9100    0.7220 C   0  0  0  0  0  3  0  0  0  0  0  0
  106.0460   51.8490    1.5170 C   0  0  0  0  0  3  0  0  0  0  0  0
  102.9840   56.3210    4.0200 C   0  0  0  0  0  0  0  0  0  0  0  0
  102.2290   55.8650    4.9380 O   0  0  0  0  0  1  0  0  0  0  0  0
  102.7490   57.3720    3.3480 O   0  0  0  0  0  0  0  0  0  0  0  0
  1 11  1  0  0  0  0
  2  1  1  0  0  0  0
  3  2  2  0  0  0  0
  4  3  1  0  0  0  0
  4  5  1  0  0  0  0
  5 25  1  0  0  0  0
  5  1  2  0  0  0  0
  6  7  1  0  0  0  0
  8  7  2  0  0  0  0
  9  8  1  0  0  0  0
 10 11  1  0  0  0  0
 10  9  2  0  0  0  0
 11  6  2  0  0  0  0
 13 12  1  6  0  0  0
 14 13  1  0  0  0  0
 15 14  1  0  0  0  0
 16  6  1  1  0  0  0
 16 15  1  0  0  0  0
 16 17  1  0  0  0  0
 17 18  1  0  0  0  0
 18 13  1  0  0  0  0
 19  3  1  0  0  0  0
 20 19  2  0  0  0  0
 21 20  1  0  0  0  0
 22 21  2  0  0  0  0
 22 23  1  0  0  0  0
 23 24  2  0  0  0  0
 24 19  1  0  0  0  0
 25 26  1  0  0  0  0
 27 25  2  0  0  0  0
M  END
>  <minimizedAffinity>
-7.79282713

$$$$

 OpenBabel08272217053D

 27 30  0  0  1  0  0  0  0  0999 V2000
   89.5480   43.0940    0.1780 C   0  0  0  0  0  0  0  0  0  0  0  0
   90.1900   42.1450    1.0470 C   0  0  0  0  0  3  0  0  0  0  0  0
   91.4480   41.7720    0.6230 C   0  0  0  0  0  0  0  0  0  0  0  0
   91.8290   42.5310   -0.8600 S   0  0  0  0  0  0  0  0  0  0  0  0
   90.3450   43.4040   -0.9160 C   0  0  0  0  0  0  0  0  0  0  0  0
   88.0510   44.8670    1.1470 C   0  0  0  0  0  0  0  0  0  0  0  0
   86.7370   45.2720    1.4600 C   0  0  0  0  0  3  0  0  0  0  0  0
   85.6330   44.5060    1.0810 C   0  0  0  0  0  3  0  0  0  0  0  0
   85.8160   43.3180    0.3820 C   0  0  0  0  0  3  0  0  0  0  0  0
   87.1070   42.8900    0.0730 C   0  0  0  0  0  3  0  0  0  0  0  0
   88.2250   43.6520    0.4480 C   0  0  0  0  0  0  0  0  0  0  0  0
   91.9680   48.3890    3.7000 C   0  0  0  0  0  1  0  0  0  0  0  0
   90.7340   47.5530    3.3640 C   0  0  2  0  0  3  0  0  0  0  0  0
   91.1090   46.0730    3.2210 C   0  0  0  0  0  2  0  0  0  0  0  0
   89.9020   45.2170    2.8330 C   0  0  0  0  0  2  0  0  0  0  0  0
   89.2330   45.7420    1.5520 C   0  0  2  0  0  3  0  0  0  0  0  0
   88.8460   47.2240    1.7050 C   0  0  0  0  0  2  0  0  0  0  0  0
   90.0560   48.0760    2.0910 C   0  0  0  0  0  2  0  0  0  0  0  0
   92.3910   40.8430    1.2620 C   0  0  0  0  0  0  0  0  0  0  0  0
   93.3570   40.1470    0.5180 C   0  0  0  0  0  3  0  0  0  0  0  0
   94.2620   39.2860    1.1460 C   0  0  0  0  0  3  0  0  0  0  0  0
   94.2150   39.1100    2.5270 C   0  0  0  0  0  3  0  0  0  0  0  0
   93.2650   39.7940    3.2810 C   0  0  0  0  0  3  0  0  0  0  0  0
   92.3620   40.6570    2.6530 C   0  0  0  0  0  3  0  0  0  0  0  0
   90.0450   44.3590   -2.0340 C   0  0  0  0  0  0  0  0  0  0  0  0
   90.1960   45.5980   -1.7860 O   0  0  0  0  0  1  0  0  0  0  0  0
   89.6610   43.8870   -3.1470 O   0  0  0  0  0  0  0  0  0  0  0  0
  1 11  1  0  0  0  0
  1  2  1  0  0  0  0
  3  2  2  0  0  0  0
  3 19  1  0  0  0  0
  4  3  1  0  0  0  0
  5  4  1  0  0  0  0
  5  1  2  0  0  0  0
  6  7  1  0  0  0  0
  8  7  2  0  0  0  0
  9  8  1  0  0  0  0
 10  9  2  0  0  0  0
 10 11  1  0  0  0  0
 11  6  2  0  0  0  0
 13 12  1  6  0  0  0
 14 13  1  0  0  0  0
 15 14  1  0  0  0  0
 16  6  1  1  0  0  0
 16 17  1  0  0  0  0
 16 15  1  0  0  0  0
 17 18  1  0  0  0  0
 18 13  1  0  0  0  0
 19 24  1  0  0  0  0
 20 21  1  0  0  0  0
 20 19  2  0  0  0  0
 21 22  2  0  0  0  0
 22 23  1  0  0  0  0
 24 23  2  0  0  0  0
 25 26  1  0  0  0  0
 25  5  1  0  0  0  0
 27 25  2  0  0  0  0
M  END
>  <minimizedAffinity>
-7.63071728

$$$$
