
 OpenBabel08272217053D

 27 30  0  0  1  0  0  0  0  0999 V2000
  106.2690   54.1110    2.9330 C   0  0  0  0  0  0  0  0  0  0  0  0
  106.7260   55.1970    3.7580 C   0  0  0  0  0  3  0  0  0  0  0  0
  105.7030   55.9270    4.3260 C   0  0  0  0  0  0  0  0  0  0  0  0
  104.1860   55.3290    3.8140 S   0  0  0  0  0  0  0  0  0  0  0  0
  104.8830   54.0590    2.8790 C   0  0  0  0  0  0  0  0  0  0  0  0
  107.8290   52.1380    2.9470 C   0  0  0  0  0  0  0  0  0  0  0  0
  108.7740   51.3660    2.2400 C   0  0  0  0  0  3  0  0  0  0  0  0
  109.0560   51.6170    0.8950 C   0  0  0  0  0  3  0  0  0  0  0  0
  108.3990   52.6440    0.2260 C   0  0  0  0  0  3  0  0  0  0  0  0
  107.4700   53.4300    0.9070 C   0  0  0  0  0  3  0  0  0  0  0  0
  107.1790   53.1870    2.2590 C   0  0  0  0  0  0  0  0  0  0  0  0
  106.9400   49.8050    8.2400 C   0  0  0  0  0  1  0  0  0  0  0  0
  107.2380   50.0310    6.7590 C   0  0  2  0  0  3  0  0  0  0  0  0
  108.4630   50.9380    6.5880 C   0  0  0  0  0  2  0  0  0  0  0  0
  108.7550   51.2250    5.1150 C   0  0  0  0  0  2  0  0  0  0  0  0
  107.5260   51.8200    4.4060 C   0  0  2  0  0  3  0  0  0  0  0  0
  106.3020   50.9000    4.5690 C   0  0  0  0  0  2  0  0  0  0  0  0
  106.0140   50.6170    6.0440 C   0  0  0  0  0  2  0  0  0  0  0  0
  105.7950   57.0850    5.2270 C   0  0  0  0  0  0  0  0  0  0  0  0
  104.6510   57.6720    5.7900 C   0  0  0  0  0  3  0  0  0  0  0  0
  104.7590   58.7580    6.6640 C   0  0  0  0  0  3  0  0  0  0  0  0
  106.0120   59.2710    6.9890 C   0  0  0  0  0  3  0  0  0  0  0  0
  107.1580   58.6990    6.4420 C   0  0  0  0  0  3  0  0  0  0  0  0
  107.0500   57.6120    5.5700 C   0  0  0  0  0  3  0  0  0  0  0  0
  104.0250   53.0710    2.1470 C   0  0  0  0  0  0  0  0  0  0  0  0
  104.5910   52.0000    1.7530 O   0  0  0  0  0  0  0  0  0  0  0  0
  102.8020   53.3510    1.9600 O   0  0  0  0  0  1  0  0  0  0  0  0
  1  2  1  0  0  0  0
  2  3  2  0  0  0  0
  3 19  1  0  0  0  0
  4  3  1  0  0  0  0
  5  1  2  0  0  0  0
  5  4  1  0  0  0  0
  7  6  2  0  0  0  0
  8  7  1  0  0  0  0
  9  8  2  0  0  0  0
  9 10  1  0  0  0  0
 10 11  2  0  0  0  0
 11  1  1  0  0  0  0
 11  6  1  0  0  0  0
 13 12  1  1  0  0  0
 14 13  1  0  0  0  0
 15 14  1  0  0  0  0
 16  6  1  6  0  0  0
 16 17  1  0  0  0  0
 16 15  1  0  0  0  0
 17 18  1  0  0  0  0
 18 13  1  0  0  0  0
 19 24  2  0  0  0  0
 19 20  1  0  0  0  0
 20 21  2  0  0  0  0
 21 22  1  0  0  0  0
 23 22  2  0  0  0  0
 24 23  1  0  0  0  0
 25  5  1  0  0  0  0
 26 25  2  0  0  0  0
 27 25  1  0  0  0  0
M  END
>  <minimizedAffinity>
-8.26592159

$$$$
