
 OpenBabel08272217053D

 27 30  0  0  1  0  0  0  0  0999 V2000
  105.4510   55.6030    4.3910 C   0  0  0  0  0  0  0  0  0  0  0  0
  106.4200   54.7210    3.7990 C   0  0  0  0  0  3  0  0  0  0  0  0
  105.9440   54.0360    2.7000 C   0  0  0  0  0  0  0  0  0  0  0  0
  104.3030   54.4230    2.4200 S   0  0  0  0  0  0  0  0  0  0  0  0
  104.2340   55.5460    3.7250 C   0  0  0  0  0  0  0  0  0  0  0  0
  105.9990   55.9110    6.8260 C   0  0  0  0  0  0  0  0  0  0  0  0
  106.1650   56.8070    7.9020 C   0  0  0  0  0  3  0  0  0  0  0  0
  106.0950   58.1890    7.7130 C   0  0  0  0  0  3  0  0  0  0  0  0
  105.8590   58.7070    6.4450 C   0  0  0  0  0  3  0  0  0  0  0  0
  105.6780   57.8410    5.3670 C   0  0  0  0  0  3  0  0  0  0  0  0
  105.7460   56.4500    5.5450 C   0  0  0  0  0  0  0  0  0  0  0  0
  106.3000   50.4390    8.8800 C   0  0  0  0  0  1  0  0  0  0  0  0
  106.2080   51.9570    8.7350 C   0  0  2  0  0  3  0  0  0  0  0  0
  104.9420   52.3490    7.9620 C   0  0  0  0  0  2  0  0  0  0  0  0
  104.8490   53.8610    7.7560 C   0  0  0  0  0  2  0  0  0  0  0  0
  106.1080   54.4090    7.0630 C   0  0  2  0  0  3  0  0  0  0  0  0
  107.3750   54.0250    7.8490 C   0  0  0  0  0  2  0  0  0  0  0  0
  107.4640   52.5120    8.0510 C   0  0  0  0  0  2  0  0  0  0  0  0
  106.6510   53.0720    1.8450 C   0  0  0  0  0  0  0  0  0  0  0  0
  107.9440   53.3260    1.3620 C   0  0  0  0  0  3  0  0  0  0  0  0
  108.6100   52.3870    0.5700 C   0  0  0  0  0  3  0  0  0  0  0  0
  107.9930   51.1800    0.2500 C   0  0  0  0  0  3  0  0  0  0  0  0
  106.7110   50.9100    0.7220 C   0  0  0  0  0  3  0  0  0  0  0  0
  106.0460   51.8490    1.5170 C   0  0  0  0  0  3  0  0  0  0  0  0
  102.9840   56.3210    4.0200 C   0  0  0  0  0  0  0  0  0  0  0  0
  102.2290   55.8650    4.9380 O   0  0  0  0  0  1  0  0  0  0  0  0
  102.7490   57.3720    3.3480 O   0  0  0  0  0  0  0  0  0  0  0  0
  1 11  1  0  0  0  0
  2  1  1  0  0  0  0
  3  2  2  0  0  0  0
  4  3  1  0  0  0  0
  4  5  1  0  0  0  0
  5 25  1  0  0  0  0
  5  1  2  0  0  0  0
  6  7  1  0  0  0  0
  8  7  2  0  0  0  0
  9  8  1  0  0  0  0
 10 11  1  0  0  0  0
 10  9  2  0  0  0  0
 11  6  2  0  0  0  0
 13 12  1  6  0  0  0
 14 13  1  0  0  0  0
 15 14  1  0  0  0  0
 16  6  1  1  0  0  0
 16 15  1  0  0  0  0
 16 17  1  0  0  0  0
 17 18  1  0  0  0  0
 18 13  1  0  0  0  0
 19  3  1  0  0  0  0
 20 19  2  0  0  0  0
 21 20  1  0  0  0  0
 22 21  2  0  0  0  0
 22 23  1  0  0  0  0
 23 24  2  0  0  0  0
 24 19  1  0  0  0  0
 25 26  1  0  0  0  0
 27 25  2  0  0  0  0
M  END
>  <minimizedAffinity>
-7.79282713

$$$$
